ELEMENTS 
 O H N PD
END

SPECIES
 O2 O H2 H OH H2O N2
END

REACTIONS
N2=>N2	1. 0. 0.
END