ELEMENTS 
 O H N C Pt Rh
END

SPECIES
 C3H6 O2 H2 H2O CO CO2 NO N2
END

REACTIONS
N2=>N2	1. 0. 0.
END