ELEMENTS 
 O H N C AR Rh
END

SPECIES
 O2 O H2 H OH H2O CH4 CO CO2 AR N2
END

REACTIONS
N2=>N2	1. 0. 0.
END