ELEMENTS 
C H O N AR
END 

SPECIES 
   CH3 C2H6 CH4 H H2 
END

REACTIONS
2CH3(+M)=C2H6(+M)              0.903E+17 -1.180    654.000
 LOW/ 3.18E41 -7.03 2762./
 TROE/ .6041 6927. 132./
 H2/2/ 
CH4+H=CH3+H2                   0.220E+05  3.000   8750.000
CH3+H(+M)=CH4(+M)              0.600E+17 -1.000      0.000
 LOW/8.0E26 -3.0 0.0/
 H2/2/ 
H+H+M=H2+M                     0.100E+19 -1.000      0.000
   H2/0.0/
H+H+H2=H2+H2                   0.920E+17 -0.600      0.000
END
