! GRI-Mech Version 3.0 7/30/99  CHEMKIN-II format
! See README30 file at anonymous FTP site unix.sri.com, directory gri;
! WorldWideWeb home page http://www.me.berkeley.edu/gri_mech/ or
! through http://www.gri.org , under 'Basic  Research', 
! for additional information, contacts, and disclaimer
ELEMENTS
H  C  N  HE
END
SPECIES
H2      H    
C       CH      CH2     CH2(S)  CH3     CH4     C2H     C2H2    C2H3    
C2H4    C2H5    C2H6    N2      
HE      C3H7    C3H8    C6H6 C10H8
END
!THERMO
! Insert GRI-Mech thermodynamics here or use in default file
!END
REACTIONS

2H+M<=>H2+M                              1.000E+18   -1.000        .00
H2/ .00/ CH4/2.00/ C2H6/3.00/
2H+H2<=>2H2                              9.000E+16    -.600        .00
H+CH<=>C+H2                              1.650E+14     .000        .00
H+CH2(+M)<=>CH3(+M)                      6.000E+14     .000        .00
     LOW  /  1.040E+26   -2.760   1600.00/
     TROE/   .5620  91.00  5836.00  8552.00/
H2/2.00/ CH4/2.00/ C2H6/3.00/
H+CH2(S)<=>CH+H2                         3.000E+13     .000        .00
H+CH3(+M)<=>CH4(+M)                      13.90E+15    -.534     536.00
     LOW  /  2.620E+33   -4.760   2440.00/
     TROE/   .7830   74.00  2941.00  6964.00 /
H2/2.00/CH4/3.00/ C2H6/3.00/
H+CH4<=>CH3+H2                           6.600E+08    1.620   10840.00
H+C2H(+M)<=>C2H2(+M)                     1.000E+17   -1.000        .00
     LOW  /  3.750E+33   -4.800   1900.00/
     TROE/   .6464  132.00  1315.00  5566.00 /
H2/2.00/  CH4/2.00/  C2H6/3.00/
H+C2H2(+M)<=>C2H3(+M)                    5.600E+12     .000    2400.00
     LOW  /  3.800E+40   -7.270   7220.00/
     TROE/   .7507   98.50  1302.00  4167.00 /
H2/2.00/  CH4/2.00/  C2H6/3.00/ 
H+C2H3(+M)<=>C2H4(+M)                    6.080E+12     .270     280.00
     LOW  /  1.400E+30   -3.860   3320.00/
     TROE/   .7820  207.50  2663.00  6095.00 /
H2/2.00/ CH4/2.00/ C2H6/3.00/
H+C2H3<=>H2+C2H2                         3.000E+13     .000        .00
H+C2H4(+M)<=>C2H5(+M)                    0.540E+12     .454    1820.00
     LOW  /  0.600E+42   -7.620   6970.00/
     TROE/   .9753  210.00   984.00  4374.00 /
H2/2.00/ CH4/2.00/ C2H6/3.00/
H+C2H4<=>C2H3+H2                         1.325E+06    2.530   12240.00
H+C2H5(+M)<=>C2H6(+M)                    5.210E+17    -.990    1580.00
     LOW  /  1.990E+41   -7.080   6685.00/
     TROE/   .8422  125.00  2219.00  6882.00 /
H2/2.00/ CH4/2.00/ C2H6/3.00/
H+C2H5<=>H2+C2H4                         2.000E+12     .000        .00
H+C2H6<=>C2H5+H2                         1.150E+08    1.900    7530.00
C+CH2<=>H+C2H                            5.000E+13     .000        .00
C+CH3<=>H+C2H2                           5.000E+13     .000        .00
CH+H2<=>H+CH2                            1.080E+14     .000    3110.00
CH+CH2<=>H+C2H2                          4.000E+13     .000        .00
CH+CH3<=>H+C2H3                          3.000E+13     .000        .00
CH+CH4<=>H+C2H4                          6.000E+13     .000        .00
CH2+H2<=>H+CH3                           5.000E+05    2.000    7230.00
2CH2<=>H2+C2H2                           1.600E+15     .000   11944.00
CH2+CH3<=>H+C2H4                         4.000E+13     .000        .00
CH2+CH4<=>2CH3                           2.460E+06    2.000    8270.00
CH2(S)+N2<=>CH2+N2                       1.500E+13     .000     600.00
CH2(S)+H2<=>CH3+H                        7.000E+13     .000        .00
CH2(S)+CH3<=>H+C2H4                      1.200E+13     .000    -570.00
CH2(S)+CH4<=>2CH3                        1.600E+13     .000    -570.00
CH2(S)+C2H6<=>CH3+C2H5                   4.000E+13     .000    -550.00
2CH3(+M)<=>C2H6(+M)                      6.770E+16   -1.180     654.00
     LOW  /  3.400E+41   -7.030   2762.00/
     TROE/   .6190  73.20  1180.00  9999.00 /
H2/2.00/ CH4/2.00/ C2H6/3.00/ 
2CH3<=>H+C2H5                            6.840E+12     .100   10600.00
CH3+C2H4<=>C2H3+CH4                      2.270E+05    2.000    9200.00
CH3+C2H6<=>C2H5+CH4                      6.140E+06    1.740   10450.00
C2H+H2<=>H+C2H2                          5.680E+10    0.900    1993.00
C2H4(+M)<=>H2+C2H2(+M)                   8.000E+12     .440   86770.00
     LOW  /  1.580E+51   -9.300  97800.00/
     TROE/   .7345  180.00  1035.00  5417.00 /
H2/2.00/ CH4/2.00/ C2H6/3.00/ 

CH+H2(+M)<=>CH3(+M)                      1.970E+12     .430    -370.00
   LOW/ 4.820E+25  -2.80  590.0 /
   TROE/ .578  122.0  2535.0  9365.0 /
H2/2.00/  CH4/2.00/ C2H6/3.00/ 
CH2+CH2=>2H+C2H2                         2.000E+14     .000   10989.00
CH3+C2H5(+M)<=>C3H8(+M)                  .9430E+13     .000       .00
     LOW/ 2.710E+74  -16.82  13065.0 /
     TROE/ .1527  291.0  2742.0  7748.0 / 
H2/2.00/ CH4/2.00/ C2H6/3.00/ 
H+C3H8<=>C3H7+H2                         1.320E+06    2.540   6756.00
CH3+C3H8<=>C3H7+CH4                      0.903E+00    3.650   7154.00
CH3+C2H4(+M)<=>C3H7(+M)                  2.550E+06    1.600   5700.00
      LOW/ 3.00E+63  -14.6  18170./
      TROE/ .1894  277.0  8748.0  7891.0 / 
H2/2.00/  CH4/2.00/ C2H6/3.00/  
H+C3H7(+M)<=>C3H8(+M)                    3.613E+13     .000       .00
      LOW/ 4.420E+61  -13.545  11357.0/
      TROE/ .315  369.0  3285.0  6667.0 / 
H2/2.00/ CH4/2.00/  C2H6/3.00/ 
H+C3H7<=>CH3+C2H5                        4.060E+06    2.190    890.00
CH3+C3H7<=>2C2H5                         1.927E+13   -0.320       .00
END
