ELEMENTS 
C  H  O   N  AR NI  
END

SPECIES 
 CH4 H2 O2 H2O CO CO2 AR N2
END 

REACTIONS

N2=>N2	1 0 0

END 