ELEMENTS
C H O N HE
END
SPECIES

N2	HE

!MID-CHAINS
 P-C21H42-P_S P-C21H42-P  P-C21H41-P  

!END-CHAINS
 P-C21H43    P-C21H41    P-C21H42    P-C21H42_T  P-C21H40    
 P-C21H40_A  

!unreactive LMW
 CH4         C2H6        C3H8        NC4H10      NC5H12      
 C6H14       NC7H16      C8H18       C9H20       NC10H22     
 C2H4        C3H6        C4H8-1      NC5H10      NC6H12      
 NC7H14      C8H16       C9H18       NC10H20     C4H6        
 LC5H8       DIALLYL     C7H12       C8H14       C9H16       
 C10H18      

!stable LLMW
 C15H32          C21H44          C30H62          C39H80         
 C15H30          C21H42          C30H60          C39H78         
 C15H28          C21H40          C30H58          C39H76         

!radicals LLMW
 C15H31          C21H43          C30H61          C39H79         
 C15H31_T        C21H43_T        C30H61_T        C39H79_T       
 C15H29          C21H41          C30H59          C39H77         
 C15H29_T        C21H41_T        C30H59_T        C39H77_T       
 C15H29_A        C21H41_A        C30H59_A        C39H77_A       
 C15H27          C21H39          C30H57          C39H75         
 C15H27_A        C21H39_A        C30H57_A        C39H75_A       

END

REACTIONS
!***************************************!
!	Random Scission
!***************************************!


!!!!!!!!!!  Small Reactive  !!!!!!!!!!

!!         C15H32(L)         !!
5.4C15H28+10.8C15H30+17.4C15H32=>5.4C15H27+10.8C15H29+5.4C15H31+2.0C2H6+2.0C3H8+2.0NC4H10+2.0NC5H12+2.0C6H14+2.0NC7H16+2.0C8H18+2.0C9H20+5.6NC10H22+2.4C15H31_T 6.56e+10 1 78000
	FORD/C15H28 0/
	FORD/C15H30 1/
	FORD/C15H32 1/
5.4C21H40+10.8C21H42+5.4C21H44+12.0C15H32=>5.4C21H39+10.8C21H41+5.4C21H43+2.0C2H6+2.0C3H8+2.0NC4H10+2.0NC5H12+2.0C6H14+2.0NC7H16+2.0C8H18+2.0C9H20+5.6NC10H22+2.4C15H31_T 6.56e+10 1 78000
	FORD/C21H40 0/
	FORD/C21H42 1/
	FORD/C21H44 0/
	FORD/C15H32 1/
5.4C30H58+10.8C30H60+5.4C30H62+12.0C15H32=>5.4C30H57+10.8C30H59+5.4C30H61+2.0C2H6+2.0C3H8+2.0NC4H10+2.0NC5H12+2.0C6H14+2.0NC7H16+2.0C8H18+2.0C9H20+5.6NC10H22+2.4C15H31_T 6.56e+10 1 78000
	FORD/C30H58 0/
	FORD/C30H60 1/
	FORD/C30H62 0/
	FORD/C15H32 1/
5.4C39H76+10.8C39H78+5.4C39H80+12.0C15H32=>5.4C39H75+10.8C39H77+5.4C39H79+2.0C2H6+2.0C3H8+2.0NC4H10+2.0NC5H12+2.0C6H14+2.0NC7H16+2.0C8H18+2.0C9H20+5.6NC10H22+2.4C15H31_T 6.56e+10 1 78000
	FORD/C39H76 0/
	FORD/C39H78 1/
	FORD/C39H80 0/
	FORD/C15H32 1/
!!         C15H30(L)         !!
4.65C15H28+19.3C15H30+4.65C15H32=>4.65C15H27+9.3C15H29+4.65C15H31+C4H8-1+NC5H10+NC6H12+NC7H14+C8H16+C9H18+2.8NC10H20+1.2C15H29_T+C2H6+C3H8+NC4H10+NC5H12+C6H14+NC7H16+C8H18+C9H20+1.8NC10H22+0.2C15H31_T 6.56e+10 1 78000
	FORD/C15H28 0/
	FORD/C15H30 2/
	FORD/C15H32 0/
4.65C21H40+9.3C21H42+4.65C21H44+10.0C15H30=>4.65C21H39+9.3C21H41+4.65C21H43+C4H8-1+NC5H10+NC6H12+NC7H14+C8H16+C9H18+2.8NC10H20+1.2C15H29_T+C2H6+C3H8+NC4H10+NC5H12+C6H14+NC7H16+C8H18+C9H20+1.8NC10H22+0.2C15H31_T 6.56e+10 1 78000
	FORD/C21H40 0/
	FORD/C21H42 1/
	FORD/C21H44 0/
	FORD/C15H30 1/
4.65C30H58+9.3C30H60+4.65C30H62+10.0C15H30=>4.65C30H57+9.3C30H59+4.65C30H61+C4H8-1+NC5H10+NC6H12+NC7H14+C8H16+C9H18+2.8NC10H20+1.2C15H29_T+C2H6+C3H8+NC4H10+NC5H12+C6H14+NC7H16+C8H18+C9H20+1.8NC10H22+0.2C15H31_T 6.56e+10 1 78000
	FORD/C30H58 0/
	FORD/C30H60 1/
	FORD/C30H62 0/
	FORD/C15H30 1/
4.65C39H76+9.3C39H78+4.65C39H80+10.0C15H30=>4.65C39H75+9.3C39H77+4.65C39H79+C4H8-1+NC5H10+NC6H12+NC7H14+C8H16+C9H18+2.8NC10H20+1.2C15H29_T+C2H6+C3H8+NC4H10+NC5H12+C6H14+NC7H16+C8H18+C9H20+1.8NC10H22+0.2C15H31_T 6.56e+10 1 78000
	FORD/C39H76 0/
	FORD/C39H78 1/
	FORD/C39H80 0/
	FORD/C15H30 1/
!!         C15H28(L)         !!
11.9C15H28+7.8C15H30+3.9C15H32=>3.9C15H27+7.8C15H29+3.9C15H31+2.0C4H8-1+2.0NC5H10+2.0NC6H12+2.0NC7H14+2.0C8H16+2.0C9H18+3.6NC10H20+0.4C15H29_T 6.56e+10 1 78000
	FORD/C15H28 1/
	FORD/C15H30 1/
	FORD/C15H32 0/
3.9C21H40+7.8C21H42+3.9C21H44+8.0C15H28=>3.9C21H39+7.8C21H41+3.9C21H43+2.0C4H8-1+2.0NC5H10+2.0NC6H12+2.0NC7H14+2.0C8H16+2.0C9H18+3.6NC10H20+0.4C15H29_T 6.56e+10 1 78000
	FORD/C21H40 0/
	FORD/C21H42 1/
	FORD/C21H44 0/
	FORD/C15H28 1/
3.9C30H58+7.8C30H60+3.9C30H62+8.0C15H28=>3.9C30H57+7.8C30H59+3.9C30H61+2.0C4H8-1+2.0NC5H10+2.0NC6H12+2.0NC7H14+2.0C8H16+2.0C9H18+3.6NC10H20+0.4C15H29_T 6.56e+10 1 78000
	FORD/C30H58 0/
	FORD/C30H60 1/
	FORD/C30H62 0/
	FORD/C15H28 1/
3.9C39H76+7.8C39H78+3.9C39H80+8.0C15H28=>3.9C39H75+7.8C39H77+3.9C39H79+2.0C4H8-1+2.0NC5H10+2.0NC6H12+2.0NC7H14+2.0C8H16+2.0C9H18+3.6NC10H20+0.4C15H29_T 6.56e+10 1 78000
	FORD/C39H76 0/
	FORD/C39H78 1/
	FORD/C39H80 0/
	FORD/C15H28 1/
!!         C21H44(L)         !!
5.5C15H28+11.0C15H30+5.5C15H32+18.0C21H44=>5.5C15H27+11.0C15H29+5.5C15H31+2.0C2H6+2.0C3H8+2.0NC4H10+2.0NC5H12+2.0C6H14+2.0NC7H16+2.0C8H18+2.0C9H20+6.0NC10H22+10.6666667C15H31_T+3.3333333C21H43_T 6.56e+10 1 78000
	FORD/C15H28 0/
	FORD/C15H30 1/
	FORD/C15H32 0/
	FORD/C21H44 1/
5.5C21H40+11.0C21H42+23.5C21H44=>5.5C21H39+11.0C21H41+5.5C21H43+2.0C2H6+2.0C3H8+2.0NC4H10+2.0NC5H12+2.0C6H14+2.0NC7H16+2.0C8H18+2.0C9H20+6.0NC10H22+10.6666667C15H31_T+3.3333333C21H43_T 6.56e+10 1 78000
	FORD/C21H40 0/
	FORD/C21H42 1/
	FORD/C21H44 1/
5.5C30H58+11.0C30H60+5.5C30H62+18.0C21H44=>5.5C30H57+11.0C30H59+5.5C30H61+2.0C2H6+2.0C3H8+2.0NC4H10+2.0NC5H12+2.0C6H14+2.0NC7H16+2.0C8H18+2.0C9H20+6.0NC10H22+10.6666667C15H31_T+3.3333333C21H43_T 6.56e+10 1 78000
	FORD/C30H58 0/
	FORD/C30H60 1/
	FORD/C30H62 0/
	FORD/C21H44 1/
5.5C39H76+11.0C39H78+5.5C39H80+18.0C21H44=>5.5C39H75+11.0C39H77+5.5C39H79+2.0C2H6+2.0C3H8+2.0NC4H10+2.0NC5H12+2.0C6H14+2.0NC7H16+2.0C8H18+2.0C9H20+6.0NC10H22+10.6666667C15H31_T+3.3333333C21H43_T 6.56e+10 1 78000
	FORD/C39H76 0/
	FORD/C39H78 1/
	FORD/C39H80 0/
	FORD/C21H44 1/
!!         C21H42(L)         !!
5.0C15H28+10.0C15H30+5.0C15H32+16.0C21H42=>5.0C15H27+10.0C15H29+5.0C15H31+C4H8-1+NC5H10+NC6H12+NC7H14+C8H16+C9H18+3.0NC10H20+5.3333333C15H29_T+1.6666667C21H41_T+C2H6+C3H8+NC4H10+NC5H12+C6H14+NC7H16+C8H18+C9H20+3.0NC10H22+4.5C15H31_T+0.5C21H43_T 6.56e+10 1 78000
	FORD/C15H28 0/
	FORD/C15H30 1/
	FORD/C15H32 0/
	FORD/C21H42 1/
5.0C21H40+26.0C21H42+5.0C21H44=>5.0C21H39+10.0C21H41+5.0C21H43+C4H8-1+NC5H10+NC6H12+NC7H14+C8H16+C9H18+3.0NC10H20+5.3333333C15H29_T+1.6666667C21H41_T+C2H6+C3H8+NC4H10+NC5H12+C6H14+NC7H16+C8H18+C9H20+3.0NC10H22+4.5C15H31_T+0.5C21H43_T 6.56e+10 1 78000
	FORD/C21H40 0/
	FORD/C21H42 2/
	FORD/C21H44 0/
5.0C30H58+10.0C30H60+5.0C30H62+16.0C21H42=>5.0C30H57+10.0C30H59+5.0C30H61+C4H8-1+NC5H10+NC6H12+NC7H14+C8H16+C9H18+3.0NC10H20+5.3333333C15H29_T+1.6666667C21H41_T+C2H6+C3H8+NC4H10+NC5H12+C6H14+NC7H16+C8H18+C9H20+3.0NC10H22+4.5C15H31_T+0.5C21H43_T 6.56e+10 1 78000
	FORD/C30H58 0/
	FORD/C30H60 1/
	FORD/C30H62 0/
	FORD/C21H42 1/
5.0C39H76+10.0C39H78+5.0C39H80+16.0C21H42=>5.0C39H75+10.0C39H77+5.0C39H79+C4H8-1+NC5H10+NC6H12+NC7H14+C8H16+C9H18+3.0NC10H20+5.3333333C15H29_T+1.6666667C21H41_T+C2H6+C3H8+NC4H10+NC5H12+C6H14+NC7H16+C8H18+C9H20+3.0NC10H22+4.5C15H31_T+0.5C21H43_T 6.56e+10 1 78000
	FORD/C39H76 0/
	FORD/C39H78 1/
	FORD/C39H80 0/
	FORD/C21H42 1/
!!         C21H40(L)         !!
4.5C15H28+9.0C15H30+4.5C15H32+14.0C21H40=>4.5C15H27+9.0C15H29+4.5C15H31+2.0C4H8-1+2.0NC5H10+2.0NC6H12+2.0NC7H14+2.0C8H16+2.0C9H18+6.0NC10H20+9.0C15H29_T+C21H41_T 6.56e+10 1 78000
	FORD/C15H28 0/
	FORD/C15H30 1/
	FORD/C15H32 0/
	FORD/C21H40 1/
18.5C21H40+9.0C21H42+4.5C21H44=>4.5C21H39+9.0C21H41+4.5C21H43+2.0C4H8-1+2.0NC5H10+2.0NC6H12+2.0NC7H14+2.0C8H16+2.0C9H18+6.0NC10H20+9.0C15H29_T+C21H41_T 6.56e+10 1 78000
	FORD/C21H40 1/
	FORD/C21H42 1/
	FORD/C21H44 0/
4.5C30H58+9.0C30H60+4.5C30H62+14.0C21H40=>4.5C30H57+9.0C30H59+4.5C30H61+2.0C4H8-1+2.0NC5H10+2.0NC6H12+2.0NC7H14+2.0C8H16+2.0C9H18+6.0NC10H20+9.0C15H29_T+C21H41_T 6.56e+10 1 78000
	FORD/C30H58 0/
	FORD/C30H60 1/
	FORD/C30H62 0/
	FORD/C21H40 1/
4.5C39H76+9.0C39H78+4.5C39H80+14.0C21H40=>4.5C39H75+9.0C39H77+4.5C39H79+2.0C4H8-1+2.0NC5H10+2.0NC6H12+2.0NC7H14+2.0C8H16+2.0C9H18+6.0NC10H20+9.0C15H29_T+C21H41_T 6.56e+10 1 78000
	FORD/C39H76 0/
	FORD/C39H78 1/
	FORD/C39H80 0/
	FORD/C21H40 1/
!!         C30H62(L)         !!
5.5C15H28+11.0C15H30+5.5C15H32+27.0C30H62=>5.5C15H27+11.0C15H29+5.5C15H31+2.0C2H6+2.0C3H8+2.0NC4H10+2.0NC5H12+2.0C6H14+2.0NC7H16+2.0C8H18+2.0C9H20+6.0NC10H22+11.0C15H31_T+14.7777778C21H43_T+6.2222222C30H61_T 6.56e+10 1 78000
	FORD/C15H28 0/
	FORD/C15H30 1/
	FORD/C15H32 0/
	FORD/C30H62 1/
5.5C21H40+11.0C21H42+5.5C21H44+27.0C30H62=>5.5C21H39+11.0C21H41+5.5C21H43+2.0C2H6+2.0C3H8+2.0NC4H10+2.0NC5H12+2.0C6H14+2.0NC7H16+2.0C8H18+2.0C9H20+6.0NC10H22+11.0C15H31_T+14.7777778C21H43_T+6.2222222C30H61_T 6.56e+10 1 78000
	FORD/C21H40 0/
	FORD/C21H42 1/
	FORD/C21H44 0/
	FORD/C30H62 1/
5.5C30H58+11.0C30H60+32.5C30H62=>5.5C30H57+11.0C30H59+5.5C30H61+2.0C2H6+2.0C3H8+2.0NC4H10+2.0NC5H12+2.0C6H14+2.0NC7H16+2.0C8H18+2.0C9H20+6.0NC10H22+11.0C15H31_T+14.7777778C21H43_T+6.2222222C30H61_T 6.56e+10 1 78000
	FORD/C30H58 0/
	FORD/C30H60 1/
	FORD/C30H62 1/
5.5C39H76+11.0C39H78+5.5C39H80+27.0C30H62=>5.5C39H75+11.0C39H77+5.5C39H79+2.0C2H6+2.0C3H8+2.0NC4H10+2.0NC5H12+2.0C6H14+2.0NC7H16+2.0C8H18+2.0C9H20+6.0NC10H22+11.0C15H31_T+14.7777778C21H43_T+6.2222222C30H61_T 6.56e+10 1 78000
	FORD/C39H76 0/
	FORD/C39H78 1/
	FORD/C39H80 0/
	FORD/C30H62 1/
!!         C30H60(L)         !!
5.0C15H28+10.0C15H30+5.0C15H32+25.0C30H60=>5.0C15H27+10.0C15H29+5.0C15H31+C4H8-1+NC5H10+NC6H12+NC7H14+C8H16+C9H18+3.0NC10H20+5.5C15H29_T+7.3888889C21H41_T+3.1111111C30H59_T+C2H6+C3H8+NC4H10+NC5H12+C6H14+NC7H16+C8H18+C9H20+3.0NC10H22+5.5C15H31_T+6.8333333C21H43_T+1.6666667C30H61_T 6.56e+10 1 78000
	FORD/C15H28 0/
	FORD/C15H30 1/
	FORD/C15H32 0/
	FORD/C30H60 1/
5.0C21H40+10.0C21H42+5.0C21H44+25.0C30H60=>5.0C21H39+10.0C21H41+5.0C21H43+C4H8-1+NC5H10+NC6H12+NC7H14+C8H16+C9H18+3.0NC10H20+5.5C15H29_T+7.3888889C21H41_T+3.1111111C30H59_T+C2H6+C3H8+NC4H10+NC5H12+C6H14+NC7H16+C8H18+C9H20+3.0NC10H22+5.5C15H31_T+6.8333333C21H43_T+1.6666667C30H61_T 6.56e+10 1 78000
	FORD/C21H40 0/
	FORD/C21H42 1/
	FORD/C21H44 0/
	FORD/C30H60 1/
5.0C30H58+35.0C30H60+5.0C30H62=>5.0C30H57+10.0C30H59+5.0C30H61+C4H8-1+NC5H10+NC6H12+NC7H14+C8H16+C9H18+3.0NC10H20+5.5C15H29_T+7.3888889C21H41_T+3.1111111C30H59_T+C2H6+C3H8+NC4H10+NC5H12+C6H14+NC7H16+C8H18+C9H20+3.0NC10H22+5.5C15H31_T+6.8333333C21H43_T+1.6666667C30H61_T 6.56e+10 1 78000
	FORD/C30H58 0/
	FORD/C30H60 2/
	FORD/C30H62 0/
5.0C39H76+10.0C39H78+5.0C39H80+25.0C30H60=>5.0C39H75+10.0C39H77+5.0C39H79+C4H8-1+NC5H10+NC6H12+NC7H14+C8H16+C9H18+3.0NC10H20+5.5C15H29_T+7.3888889C21H41_T+3.1111111C30H59_T+C2H6+C3H8+NC4H10+NC5H12+C6H14+NC7H16+C8H18+C9H20+3.0NC10H22+5.5C15H31_T+6.8333333C21H43_T+1.6666667C30H61_T 6.56e+10 1 78000
	FORD/C39H76 0/
	FORD/C39H78 1/
	FORD/C39H80 0/
	FORD/C30H60 1/
!!         C30H58(L)         !!
4.5C15H28+9.0C15H30+4.5C15H32+23.0C30H58=>4.5C15H27+9.0C15H29+4.5C15H31+2.0C4H8-1+2.0NC5H10+2.0NC6H12+2.0NC7H14+2.0C8H16+2.0C9H18+6.0NC10H20+11.0C15H29_T+13.6666667C21H41_T+3.3333333C30H59_T 6.56e+10 1 78000
	FORD/C15H28 0/
	FORD/C15H30 1/
	FORD/C15H32 0/
	FORD/C30H58 1/
4.5C21H40+9.0C21H42+4.5C21H44+23.0C30H58=>4.5C21H39+9.0C21H41+4.5C21H43+2.0C4H8-1+2.0NC5H10+2.0NC6H12+2.0NC7H14+2.0C8H16+2.0C9H18+6.0NC10H20+11.0C15H29_T+13.6666667C21H41_T+3.3333333C30H59_T 6.56e+10 1 78000
	FORD/C21H40 0/
	FORD/C21H42 1/
	FORD/C21H44 0/
	FORD/C30H58 1/
27.5C30H58+9.0C30H60+4.5C30H62=>4.5C30H57+9.0C30H59+4.5C30H61+2.0C4H8-1+2.0NC5H10+2.0NC6H12+2.0NC7H14+2.0C8H16+2.0C9H18+6.0NC10H20+11.0C15H29_T+13.6666667C21H41_T+3.3333333C30H59_T 6.56e+10 1 78000
	FORD/C30H58 1/
	FORD/C30H60 1/
	FORD/C30H62 0/
4.5C39H76+9.0C39H78+4.5C39H80+23.0C30H58=>4.5C39H75+9.0C39H77+4.5C39H79+2.0C4H8-1+2.0NC5H10+2.0NC6H12+2.0NC7H14+2.0C8H16+2.0C9H18+6.0NC10H20+11.0C15H29_T+13.6666667C21H41_T+3.3333333C30H59_T 6.56e+10 1 78000
	FORD/C39H76 0/
	FORD/C39H78 1/
	FORD/C39H80 0/
	FORD/C30H58 1/
!!         C39H80(L)         !!
5.5C15H28+11.0C15H30+5.5C15H32+36.0C39H80=>5.5C15H27+11.0C15H29+5.5C15H31+2.0C2H6+2.0C3H8+2.0NC4H10+2.0NC5H12+2.0C6H14+2.0NC7H16+2.0C8H18+2.0C9H20+6.0NC10H22+11.0C15H31_T+15.0C21H43_T+17.7777778C30H61_T+6.2222222C39H79_T 6.56e+10 1 78000
	FORD/C15H28 0/
	FORD/C15H30 1/
	FORD/C15H32 0/
	FORD/C39H80 1/
5.5C21H40+11.0C21H42+5.5C21H44+36.0C39H80=>5.5C21H39+11.0C21H41+5.5C21H43+2.0C2H6+2.0C3H8+2.0NC4H10+2.0NC5H12+2.0C6H14+2.0NC7H16+2.0C8H18+2.0C9H20+6.0NC10H22+11.0C15H31_T+15.0C21H43_T+17.7777778C30H61_T+6.2222222C39H79_T 6.56e+10 1 78000
	FORD/C21H40 0/
	FORD/C21H42 1/
	FORD/C21H44 0/
	FORD/C39H80 1/
5.5C30H58+11.0C30H60+5.5C30H62+36.0C39H80=>5.5C30H57+11.0C30H59+5.5C30H61+2.0C2H6+2.0C3H8+2.0NC4H10+2.0NC5H12+2.0C6H14+2.0NC7H16+2.0C8H18+2.0C9H20+6.0NC10H22+11.0C15H31_T+15.0C21H43_T+17.7777778C30H61_T+6.2222222C39H79_T 6.56e+10 1 78000
	FORD/C30H58 0/
	FORD/C30H60 1/
	FORD/C30H62 0/
	FORD/C39H80 1/
5.5C39H76+11.0C39H78+41.5C39H80=>5.5C39H75+11.0C39H77+5.5C39H79+2.0C2H6+2.0C3H8+2.0NC4H10+2.0NC5H12+2.0C6H14+2.0NC7H16+2.0C8H18+2.0C9H20+6.0NC10H22+11.0C15H31_T+15.0C21H43_T+17.7777778C30H61_T+6.2222222C39H79_T 6.56e+10 1 78000
	FORD/C39H76 0/
	FORD/C39H78 1/
	FORD/C39H80 1/
!!         C39H78(L)         !!
5.0C15H28+10.0C15H30+5.0C15H32+34.0C39H78=>5.0C15H27+10.0C15H29+5.0C15H31+C4H8-1+NC5H10+NC6H12+NC7H14+C8H16+C9H18+3.0NC10H20+5.5C15H29_T+7.5C21H41_T+8.8888889C30H59_T+3.1111111C39H77_T+C2H6+C3H8+NC4H10+NC5H12+C6H14+NC7H16+C8H18+C9H20+3.0NC10H22+5.5C15H31_T+7.5C21H43_T+8.3333333C30H61_T+1.6666667C39H79_T 6.56e+10 1 78000
	FORD/C15H28 0/
	FORD/C15H30 1/
	FORD/C15H32 0/
	FORD/C39H78 1/
5.0C21H40+10.0C21H42+5.0C21H44+34.0C39H78=>5.0C21H39+10.0C21H41+5.0C21H43+C4H8-1+NC5H10+NC6H12+NC7H14+C8H16+C9H18+3.0NC10H20+5.5C15H29_T+7.5C21H41_T+8.8888889C30H59_T+3.1111111C39H77_T+C2H6+C3H8+NC4H10+NC5H12+C6H14+NC7H16+C8H18+C9H20+3.0NC10H22+5.5C15H31_T+7.5C21H43_T+8.3333333C30H61_T+1.6666667C39H79_T 6.56e+10 1 78000
	FORD/C21H40 0/
	FORD/C21H42 1/
	FORD/C21H44 0/
	FORD/C39H78 1/
5.0C30H58+10.0C30H60+5.0C30H62+34.0C39H78=>5.0C30H57+10.0C30H59+5.0C30H61+C4H8-1+NC5H10+NC6H12+NC7H14+C8H16+C9H18+3.0NC10H20+5.5C15H29_T+7.5C21H41_T+8.8888889C30H59_T+3.1111111C39H77_T+C2H6+C3H8+NC4H10+NC5H12+C6H14+NC7H16+C8H18+C9H20+3.0NC10H22+5.5C15H31_T+7.5C21H43_T+8.3333333C30H61_T+1.6666667C39H79_T 6.56e+10 1 78000
	FORD/C30H58 0/
	FORD/C30H60 1/
	FORD/C30H62 0/
	FORD/C39H78 1/
5.0C39H76+44.0C39H78+5.0C39H80=>5.0C39H75+10.0C39H77+5.0C39H79+C4H8-1+NC5H10+NC6H12+NC7H14+C8H16+C9H18+3.0NC10H20+5.5C15H29_T+7.5C21H41_T+8.8888889C30H59_T+3.1111111C39H77_T+C2H6+C3H8+NC4H10+NC5H12+C6H14+NC7H16+C8H18+C9H20+3.0NC10H22+5.5C15H31_T+7.5C21H43_T+8.3333333C30H61_T+1.6666667C39H79_T 6.56e+10 1 78000
	FORD/C39H76 0/
	FORD/C39H78 2/
	FORD/C39H80 0/
!!         C39H76(L)         !!
4.5C15H28+9.0C15H30+4.5C15H32+32.0C39H76=>4.5C15H27+9.0C15H29+4.5C15H31+2.0C4H8-1+2.0NC5H10+2.0NC6H12+2.0NC7H14+2.0C8H16+2.0C9H18+6.0NC10H20+11.0C15H29_T+15.0C21H41_T+16.6666667C30H59_T+3.3333333C39H77_T 6.56e+10 1 78000
	FORD/C15H28 0/
	FORD/C15H30 1/
	FORD/C15H32 0/
	FORD/C39H76 1/
4.5C21H40+9.0C21H42+4.5C21H44+32.0C39H76=>4.5C21H39+9.0C21H41+4.5C21H43+2.0C4H8-1+2.0NC5H10+2.0NC6H12+2.0NC7H14+2.0C8H16+2.0C9H18+6.0NC10H20+11.0C15H29_T+15.0C21H41_T+16.6666667C30H59_T+3.3333333C39H77_T 6.56e+10 1 78000
	FORD/C21H40 0/
	FORD/C21H42 1/
	FORD/C21H44 0/
	FORD/C39H76 1/
4.5C30H58+9.0C30H60+4.5C30H62+32.0C39H76=>4.5C30H57+9.0C30H59+4.5C30H61+2.0C4H8-1+2.0NC5H10+2.0NC6H12+2.0NC7H14+2.0C8H16+2.0C9H18+6.0NC10H20+11.0C15H29_T+15.0C21H41_T+16.6666667C30H59_T+3.3333333C39H77_T 6.56e+10 1 78000
	FORD/C30H58 0/
	FORD/C30H60 1/
	FORD/C30H62 0/
	FORD/C39H76 1/
36.5C39H76+9.0C39H78+4.5C39H80=>4.5C39H75+9.0C39H77+4.5C39H79+2.0C4H8-1+2.0NC5H10+2.0NC6H12+2.0NC7H14+2.0C8H16+2.0C9H18+6.0NC10H20+11.0C15H29_T+15.0C21H41_T+16.6666667C30H59_T+3.3333333C39H77_T 6.56e+10 1 78000
	FORD/C39H76 1/
	FORD/C39H78 1/
	FORD/C39H80 0/
!!   Allyl C15H30(L)         !!
0.5C15H28+2.0C15H30+0.5C15H32=>0.5C15H27+C15H29+0.5C15H31+C3H6+0.6NC10H22+0.4C15H32                                        3.28e+09 1 70000
	FORD/C15H28 0/
	FORD/C15H30 2/
	FORD/C15H32 0/
0.5C21H40+C21H42+0.5C21H44+C15H30=>0.5C21H39+C21H41+0.5C21H43+C3H6+0.6NC10H22+0.4C15H32                                 3.28e+09 1 70000
	FORD/C21H40 0/
	FORD/C21H42 1/
	FORD/C21H44 0/
	FORD/C15H30 1/
0.5C30H58+C30H60+0.5C30H62+C15H30=>0.5C30H57+C30H59+0.5C30H61+C3H6+0.6NC10H22+0.4C15H32                                 3.28e+09 1 70000
	FORD/C30H58 0/
	FORD/C30H60 1/
	FORD/C30H62 0/
	FORD/C15H30 1/
0.5C39H76+C39H78+0.5C39H80+C15H30=>0.5C39H75+C39H77+0.5C39H79+C3H6+0.6NC10H22+0.4C15H32                                 3.28e+09 1 70000
	FORD/C39H76 0/
	FORD/C39H78 1/
	FORD/C39H80 0/
	FORD/C15H30 1/
!!   Allyl C15H28(L)         !!
1.5C15H28+C15H30+0.5C15H32=>0.5C15H27+C15H29+0.5C15H31+C3H6+0.6NC10H20+0.4C15H30                                           3.28e+09 1 70000
	FORD/C15H28 1/
	FORD/C15H30 1/
	FORD/C15H32 0/
0.5C21H40+C21H42+0.5C21H44+C15H28=>0.5C21H39+C21H41+0.5C21H43+C3H6+0.6NC10H20+0.4C15H30                                 3.28e+09 1 70000
	FORD/C21H40 0/
	FORD/C21H42 1/
	FORD/C21H44 0/
	FORD/C15H28 1/
0.5C30H58+C30H60+0.5C30H62+C15H28=>0.5C30H57+C30H59+0.5C30H61+C3H6+0.6NC10H20+0.4C15H30                                 3.28e+09 1 70000
	FORD/C30H58 0/
	FORD/C30H60 1/
	FORD/C30H62 0/
	FORD/C15H28 1/
0.5C39H76+C39H78+0.5C39H80+C15H28=>0.5C39H75+C39H77+0.5C39H79+C3H6+0.6NC10H20+0.4C15H30                                 3.28e+09 1 70000
	FORD/C39H76 0/
	FORD/C39H78 1/
	FORD/C39H80 0/
	FORD/C15H28 1/
!!   Allyl C21H42(L)         !!
0.5C15H28+C15H30+0.5C15H32+C21H42=>0.5C15H27+C15H29+0.5C15H31+C3H6+0.5C15H32+0.5C21H44                                  3.28e+09 1 70000
	FORD/C15H28 0/
	FORD/C15H30 1/
	FORD/C15H32 0/
	FORD/C21H42 1/
0.5C21H40+2.0C21H42+0.5C21H44=>0.5C21H39+C21H41+0.5C21H43+C3H6+0.5C15H32+0.5C21H44                                         3.28e+09 1 70000
	FORD/C21H40 0/
	FORD/C21H42 2/
	FORD/C21H44 0/
0.5C30H58+C30H60+0.5C30H62+C21H42=>0.5C30H57+C30H59+0.5C30H61+C3H6+0.5C15H32+0.5C21H44                                  3.28e+09 1 70000
	FORD/C30H58 0/
	FORD/C30H60 1/
	FORD/C30H62 0/
	FORD/C21H42 1/
0.5C39H76+C39H78+0.5C39H80+C21H42=>0.5C39H75+C39H77+0.5C39H79+C3H6+0.5C15H32+0.5C21H44                                  3.28e+09 1 70000
	FORD/C39H76 0/
	FORD/C39H78 1/
	FORD/C39H80 0/
	FORD/C21H42 1/
!!   Allyl C21H40(L)         !!
0.5C15H28+C15H30+0.5C15H32+C21H40=>0.5C15H27+C15H29+0.5C15H31+C3H6+0.5C15H30+0.5C21H42                                  3.28e+09 1 70000
	FORD/C15H28 0/
	FORD/C15H30 1/
	FORD/C15H32 0/
	FORD/C21H40 1/
1.5C21H40+C21H42+0.5C21H44=>0.5C21H39+C21H41+0.5C21H43+C3H6+0.5C15H30+0.5C21H42                                            3.28e+09 1 70000
	FORD/C21H40 1/
	FORD/C21H42 1/
	FORD/C21H44 0/
0.5C30H58+C30H60+0.5C30H62+C21H40=>0.5C30H57+C30H59+0.5C30H61+C3H6+0.5C15H30+0.5C21H42                                  3.28e+09 1 70000
	FORD/C30H58 0/
	FORD/C30H60 1/
	FORD/C30H62 0/
	FORD/C21H40 1/
0.5C39H76+C39H78+0.5C39H80+C21H40=>0.5C39H75+C39H77+0.5C39H79+C3H6+0.5C15H30+0.5C21H42                                  3.28e+09 1 70000
	FORD/C39H76 0/
	FORD/C39H78 1/
	FORD/C39H80 0/
	FORD/C21H40 1/
!!   Allyl C30H60(L)         !!
0.5C15H28+C15H30+0.5C15H32+C30H60=>0.5C15H27+C15H29+0.5C15H31+C3H6+0.3333333C21H44+0.6666667C30H62                      3.28e+09 1 70000
	FORD/C15H28 0/
	FORD/C15H30 1/
	FORD/C15H32 0/
	FORD/C30H60 1/
0.5C21H40+C21H42+0.5C21H44+C30H60=>0.5C21H39+C21H41+0.5C21H43+C3H6+0.3333333C21H44+0.6666667C30H62                      3.28e+09 1 70000
	FORD/C21H40 0/
	FORD/C21H42 1/
	FORD/C21H44 0/
	FORD/C30H60 1/
0.5C30H58+2.0C30H60+0.5C30H62=>0.5C30H57+C30H59+0.5C30H61+C3H6+0.3333333C21H44+0.6666667C30H62                             3.28e+09 1 70000
	FORD/C30H58 0/
	FORD/C30H60 2/
	FORD/C30H62 0/
0.5C39H76+C39H78+0.5C39H80+C30H60=>0.5C39H75+C39H77+0.5C39H79+C3H6+0.3333333C21H44+0.6666667C30H62                      3.28e+09 1 70000
	FORD/C39H76 0/
	FORD/C39H78 1/
	FORD/C39H80 0/
	FORD/C30H60 1/
!!   Allyl C30H58(L)         !!
0.5C15H28+C15H30+0.5C15H32+C30H58=>0.5C15H27+C15H29+0.5C15H31+C3H6+0.3333333C21H42+0.6666667C30H60                      3.28e+09 1 70000
	FORD/C15H28 0/
	FORD/C15H30 1/
	FORD/C15H32 0/
	FORD/C30H58 1/
0.5C21H40+C21H42+0.5C21H44+C30H58=>0.5C21H39+C21H41+0.5C21H43+C3H6+0.3333333C21H42+0.6666667C30H60                      3.28e+09 1 70000
	FORD/C21H40 0/
	FORD/C21H42 1/
	FORD/C21H44 0/
	FORD/C30H58 1/
1.5C30H58+C30H60+0.5C30H62=>0.5C30H57+C30H59+0.5C30H61+C3H6+0.3333333C21H42+0.6666667C30H60                                3.28e+09 1 70000
	FORD/C30H58 1/
	FORD/C30H60 1/
	FORD/C30H62 0/
0.5C39H76+C39H78+0.5C39H80+C30H58=>0.5C39H75+C39H77+0.5C39H79+C3H6+0.3333333C21H42+0.6666667C30H60                      3.28e+09 1 70000
	FORD/C39H76 0/
	FORD/C39H78 1/
	FORD/C39H80 0/
	FORD/C30H58 1/
!!   Allyl C39H78(L)         !!
0.5C15H28+C15H30+0.5C15H32+C39H78=>0.5C15H27+C15H29+0.5C15H31+C3H6+0.3333333C30H62+0.6666667C39H80                      3.28e+09 1 70000
	FORD/C15H28 0/
	FORD/C15H30 1/
	FORD/C15H32 0/
	FORD/C39H78 1/
0.5C21H40+C21H42+0.5C21H44+C39H78=>0.5C21H39+C21H41+0.5C21H43+C3H6+0.3333333C30H62+0.6666667C39H80                      3.28e+09 1 70000
	FORD/C21H40 0/
	FORD/C21H42 1/
	FORD/C21H44 0/
	FORD/C39H78 1/
0.5C30H58+C30H60+0.5C30H62+C39H78=>0.5C30H57+C30H59+0.5C30H61+C3H6+0.3333333C30H62+0.6666667C39H80                      3.28e+09 1 70000
	FORD/C30H58 0/
	FORD/C30H60 1/
	FORD/C30H62 0/
	FORD/C39H78 1/
0.5C39H76+2.0C39H78+0.5C39H80=>0.5C39H75+C39H77+0.5C39H79+C3H6+0.3333333C30H62+0.6666667C39H80                             3.28e+09 1 70000
	FORD/C39H76 0/
	FORD/C39H78 2/
	FORD/C39H80 0/
!!   Allyl C39H76(L)         !!
0.5C15H28+C15H30+0.5C15H32+C39H76=>0.5C15H27+C15H29+0.5C15H31+C3H6+0.3333333C30H60+0.6666667C39H78                      3.28e+09 1 70000
	FORD/C15H28 0/
	FORD/C15H30 1/
	FORD/C15H32 0/
	FORD/C39H76 1/
0.5C21H40+C21H42+0.5C21H44+C39H76=>0.5C21H39+C21H41+0.5C21H43+C3H6+0.3333333C30H60+0.6666667C39H78                      3.28e+09 1 70000
	FORD/C21H40 0/
	FORD/C21H42 1/
	FORD/C21H44 0/
	FORD/C39H76 1/
0.5C30H58+C30H60+0.5C30H62+C39H76=>0.5C30H57+C30H59+0.5C30H61+C3H6+0.3333333C30H60+0.6666667C39H78                      3.28e+09 1 70000
	FORD/C30H58 0/
	FORD/C30H60 1/
	FORD/C30H62 0/
	FORD/C39H76 1/
1.5C39H76+C39H78+0.5C39H80=>0.5C39H75+C39H77+0.5C39H79+C3H6+0.3333333C30H60+0.6666667C39H78                                3.28e+09 1 70000
	FORD/C39H76 1/
	FORD/C39H78 1/
	FORD/C39H80 0/

!***************************************!
!	Beta Scission
!***************************************!


!!!!!!!!!!  Small Reactive  !!!!!!!!!!

!!         C15H31(L)         !!
! Beta_secondary !
5.5C15H28+11.0C15H30+5.5C15H32+22.0C15H31=>5.5C15H27+11.0C15H29+5.5C15H31+2.0C2H6+2.0C3H8+2.0NC4H10+2.0NC5H12+2.0C6H14+2.0NC7H16+2.0C8H18+2.0C9H20+4.8NC10H22+1.2C15H32+2.0C3H6+2.0C4H8-1+2.0NC5H10+2.0NC6H12+2.0NC7H14+2.0C8H16+2.0C9H18+5.6NC10H20+2.4C15H30 1.64e+09 1 27000
	FORD/C15H28 0/
	FORD/C15H30 1/
	FORD/C15H32 0/
	FORD/C15H31 1/
5.5C21H40+11.0C21H42+5.5C21H44+22.0C15H31=>5.5C21H39+11.0C21H41+5.5C21H43+2.0C2H6+2.0C3H8+2.0NC4H10+2.0NC5H12+2.0C6H14+2.0NC7H16+2.0C8H18+2.0C9H20+4.8NC10H22+1.2C15H32+2.0C3H6+2.0C4H8-1+2.0NC5H10+2.0NC6H12+2.0NC7H14+2.0C8H16+2.0C9H18+5.6NC10H20+2.4C15H30 1.64e+09 1 27000
	FORD/C21H40 0/
	FORD/C21H42 1/
	FORD/C21H44 0/
	FORD/C15H31 1/
5.5C30H58+11.0C30H60+5.5C30H62+22.0C15H31=>5.5C30H57+11.0C30H59+5.5C30H61+2.0C2H6+2.0C3H8+2.0NC4H10+2.0NC5H12+2.0C6H14+2.0NC7H16+2.0C8H18+2.0C9H20+4.8NC10H22+1.2C15H32+2.0C3H6+2.0C4H8-1+2.0NC5H10+2.0NC6H12+2.0NC7H14+2.0C8H16+2.0C9H18+5.6NC10H20+2.4C15H30 1.64e+09 1 27000
	FORD/C30H58 0/
	FORD/C30H60 1/
	FORD/C30H62 0/
	FORD/C15H31 1/
5.5C39H76+11.0C39H78+5.5C39H80+22.0C15H31=>5.5C39H75+11.0C39H77+5.5C39H79+2.0C2H6+2.0C3H8+2.0NC4H10+2.0NC5H12+2.0C6H14+2.0NC7H16+2.0C8H18+2.0C9H20+4.8NC10H22+1.2C15H32+2.0C3H6+2.0C4H8-1+2.0NC5H10+2.0NC6H12+2.0NC7H14+2.0C8H16+2.0C9H18+5.6NC10H20+2.4C15H30 1.64e+09 1 27000
	FORD/C39H76 0/
	FORD/C39H78 1/
	FORD/C39H80 0/
	FORD/C15H31 1/
!!         C15H29(L)         !!
! Beta_secondary !
4.5C15H28+9.0C15H30+4.5C15H32+18.0C15H29=>4.5C15H27+9.0C15H29+4.5C15H31+C2H6+C3H8+NC4H10+NC5H12+C6H14+NC7H16+C8H18+C9H20+NC10H22+LC5H8+DIALLYL+C7H12+C8H14+C9H16+2.8C10H18+1.2C15H28+2.0C4H8-1+2.0NC5H10+2.0NC6H12+2.0NC7H14+2.0C8H16+2.0C9H18+4.2NC10H20+0.8C15H30+C3H6 1.64e+09 1 27000
	FORD/C15H28 0/
	FORD/C15H30 1/
	FORD/C15H32 0/
	FORD/C15H29 1/
4.5C21H40+9.0C21H42+4.5C21H44+18.0C15H29=>4.5C21H39+9.0C21H41+4.5C21H43+C2H6+C3H8+NC4H10+NC5H12+C6H14+NC7H16+C8H18+C9H20+NC10H22+LC5H8+DIALLYL+C7H12+C8H14+C9H16+2.8C10H18+1.2C15H28+2.0C4H8-1+2.0NC5H10+2.0NC6H12+2.0NC7H14+2.0C8H16+2.0C9H18+4.2NC10H20+0.8C15H30+C3H6 1.64e+09 1 27000
	FORD/C21H40 0/
	FORD/C21H42 1/
	FORD/C21H44 0/
	FORD/C15H29 1/
4.5C30H58+9.0C30H60+4.5C30H62+18.0C15H29=>4.5C30H57+9.0C30H59+4.5C30H61+C2H6+C3H8+NC4H10+NC5H12+C6H14+NC7H16+C8H18+C9H20+NC10H22+LC5H8+DIALLYL+C7H12+C8H14+C9H16+2.8C10H18+1.2C15H28+2.0C4H8-1+2.0NC5H10+2.0NC6H12+2.0NC7H14+2.0C8H16+2.0C9H18+4.2NC10H20+0.8C15H30+C3H6 1.64e+09 1 27000
	FORD/C30H58 0/
	FORD/C30H60 1/
	FORD/C30H62 0/
	FORD/C15H29 1/
4.5C39H76+9.0C39H78+4.5C39H80+18.0C15H29=>4.5C39H75+9.0C39H77+4.5C39H79+C2H6+C3H8+NC4H10+NC5H12+C6H14+NC7H16+C8H18+C9H20+NC10H22+LC5H8+DIALLYL+C7H12+C8H14+C9H16+2.8C10H18+1.2C15H28+2.0C4H8-1+2.0NC5H10+2.0NC6H12+2.0NC7H14+2.0C8H16+2.0C9H18+4.2NC10H20+0.8C15H30+C3H6 1.64e+09 1 27000
	FORD/C39H76 0/
	FORD/C39H78 1/
	FORD/C39H80 0/
	FORD/C15H29 1/
!!         C15H27(L)         !!
! Beta_secondary !
3.5C15H28+7.0C15H30+3.5C15H32+14.0C15H27=>3.5C15H27+7.0C15H29+3.5C15H31+2.0C4H8-1+2.0NC5H10+2.0NC6H12+2.0NC7H14+2.0C8H16+2.0C9H18+2.0NC10H20+2.0LC5H8+2.0DIALLYL+2.0C7H12+2.0C8H14+2.0C9H16+3.6C10H18+0.4C15H28 1.64e+09 1 27000
	FORD/C15H28 0/
	FORD/C15H30 1/
	FORD/C15H32 0/
	FORD/C15H27 1/
3.5C21H40+7.0C21H42+3.5C21H44+14.0C15H27=>3.5C21H39+7.0C21H41+3.5C21H43+2.0C4H8-1+2.0NC5H10+2.0NC6H12+2.0NC7H14+2.0C8H16+2.0C9H18+2.0NC10H20+2.0LC5H8+2.0DIALLYL+2.0C7H12+2.0C8H14+2.0C9H16+3.6C10H18+0.4C15H28 1.64e+09 1 27000
	FORD/C21H40 0/
	FORD/C21H42 1/
	FORD/C21H44 0/
	FORD/C15H27 1/
3.5C30H58+7.0C30H60+3.5C30H62+14.0C15H27=>3.5C30H57+7.0C30H59+3.5C30H61+2.0C4H8-1+2.0NC5H10+2.0NC6H12+2.0NC7H14+2.0C8H16+2.0C9H18+2.0NC10H20+2.0LC5H8+2.0DIALLYL+2.0C7H12+2.0C8H14+2.0C9H16+3.6C10H18+0.4C15H28 1.64e+09 1 27000
	FORD/C30H58 0/
	FORD/C30H60 1/
	FORD/C30H62 0/
	FORD/C15H27 1/
3.5C39H76+7.0C39H78+3.5C39H80+14.0C15H27=>3.5C39H75+7.0C39H77+3.5C39H79+2.0C4H8-1+2.0NC5H10+2.0NC6H12+2.0NC7H14+2.0C8H16+2.0C9H18+2.0NC10H20+2.0LC5H8+2.0DIALLYL+2.0C7H12+2.0C8H14+2.0C9H16+3.6C10H18+0.4C15H28 1.64e+09 1 27000
	FORD/C39H76 0/
	FORD/C39H78 1/
	FORD/C39H80 0/
	FORD/C15H27 1/
!!         C21H43(L)         !!
! Beta_secondary !
8.0C15H28+16.0C15H30+8.0C15H32+34.0C21H43=>8.0C15H27+16.0C15H29+8.0C15H31+2.0C2H6+2.0C3H8+2.0NC4H10+2.0NC5H12+2.0C6H14+2.0NC7H16+2.0C8H18+2.0C9H20+6.0NC10H22+10.0C15H32+2.0C21H43_T+2.0C3H6+2.0C4H8-1+2.0NC5H10+2.0NC6H12+2.0NC7H14+2.0C8H16+2.0C9H18+6.0NC10H20+10.6666667C15H30+3.3333333C21H42 1.64e+09 1 27000
	FORD/C15H28 0/
	FORD/C15H30 1/
	FORD/C15H32 0/
	FORD/C21H43 1/
8.0C21H40+16.0C21H42+8.0C21H44+34.0C21H43=>8.0C21H39+16.0C21H41+8.0C21H43+2.0C2H6+2.0C3H8+2.0NC4H10+2.0NC5H12+2.0C6H14+2.0NC7H16+2.0C8H18+2.0C9H20+6.0NC10H22+10.0C15H32+2.0C21H43_T+2.0C3H6+2.0C4H8-1+2.0NC5H10+2.0NC6H12+2.0NC7H14+2.0C8H16+2.0C9H18+6.0NC10H20+10.6666667C15H30+3.3333333C21H42 1.64e+09 1 27000
	FORD/C21H40 0/
	FORD/C21H42 1/
	FORD/C21H44 0/
	FORD/C21H43 1/
8.0C30H58+16.0C30H60+8.0C30H62+34.0C21H43=>8.0C30H57+16.0C30H59+8.0C30H61+2.0C2H6+2.0C3H8+2.0NC4H10+2.0NC5H12+2.0C6H14+2.0NC7H16+2.0C8H18+2.0C9H20+6.0NC10H22+10.0C15H32+2.0C21H43_T+2.0C3H6+2.0C4H8-1+2.0NC5H10+2.0NC6H12+2.0NC7H14+2.0C8H16+2.0C9H18+6.0NC10H20+10.6666667C15H30+3.3333333C21H42 1.64e+09 1 27000
	FORD/C30H58 0/
	FORD/C30H60 1/
	FORD/C30H62 0/
	FORD/C21H43 1/
8.0C39H76+16.0C39H78+8.0C39H80+34.0C21H43=>8.0C39H75+16.0C39H77+8.0C39H79+2.0C2H6+2.0C3H8+2.0NC4H10+2.0NC5H12+2.0C6H14+2.0NC7H16+2.0C8H18+2.0C9H20+6.0NC10H22+10.0C15H32+2.0C21H43_T+2.0C3H6+2.0C4H8-1+2.0NC5H10+2.0NC6H12+2.0NC7H14+2.0C8H16+2.0C9H18+6.0NC10H20+10.6666667C15H30+3.3333333C21H42 1.64e+09 1 27000
	FORD/C39H76 0/
	FORD/C39H78 1/
	FORD/C39H80 0/
	FORD/C21H43 1/
!!         C21H41(L)         !!
! Beta_secondary !
7.4583333C15H28+14.9166667C15H30+7.4583333C15H32+30.0C21H41=>7.4583333C15H27+14.9166667C15H29+7.4583333C15H31+C2H6+C3H8+NC4H10+NC5H12+C6H14+NC7H16+C8H18+C9H20+3.0NC10H22+3.8333333C15H32+0.1666667C21H43_T+LC5H8+DIALLYL+C7H12+C8H14+C9H16+3.0C10H18+5.3333333C15H28+1.6666667C21H40+2.0C4H8-1+2.0NC5H10+2.0NC6H12+2.0NC7H14+2.0C8H16+2.0C9H18+6.0NC10H20+9.5C15H30+1.5C21H42+C3H6 1.64e+09 1 27000
	FORD/C15H28 0/
	FORD/C15H30 1/
	FORD/C15H32 0/
	FORD/C21H41 1/
7.4583333C21H40+14.9166667C21H42+7.4583333C21H44+30.0C21H41=>7.4583333C21H39+14.9166667C21H41+7.4583333C21H43+C2H6+C3H8+NC4H10+NC5H12+C6H14+NC7H16+C8H18+C9H20+3.0NC10H22+3.8333333C15H32+0.1666667C21H43_T+LC5H8+DIALLYL+C7H12+C8H14+C9H16+3.0C10H18+5.3333333C15H28+1.6666667C21H40+2.0C4H8-1+2.0NC5H10+2.0NC6H12+2.0NC7H14+2.0C8H16+2.0C9H18+6.0NC10H20+9.5C15H30+1.5C21H42+C3H6 1.64e+09 1 27000
	FORD/C21H40 0/
	FORD/C21H42 1/
	FORD/C21H44 0/
	FORD/C21H41 1/
7.4583333C30H58+14.9166667C30H60+7.4583333C30H62+30.0C21H41=>7.4583333C30H57+14.9166667C30H59+7.4583333C30H61+C2H6+C3H8+NC4H10+NC5H12+C6H14+NC7H16+C8H18+C9H20+3.0NC10H22+3.8333333C15H32+0.1666667C21H43_T+LC5H8+DIALLYL+C7H12+C8H14+C9H16+3.0C10H18+5.3333333C15H28+1.6666667C21H40+2.0C4H8-1+2.0NC5H10+2.0NC6H12+2.0NC7H14+2.0C8H16+2.0C9H18+6.0NC10H20+9.5C15H30+1.5C21H42+C3H6 1.64e+09 1 27000
	FORD/C30H58 0/
	FORD/C30H60 1/
	FORD/C30H62 0/
	FORD/C21H41 1/
7.4583333C39H76+14.9166667C39H78+7.4583333C39H80+30.0C21H41=>7.4583333C39H75+14.9166667C39H77+7.4583333C39H79+C2H6+C3H8+NC4H10+NC5H12+C6H14+NC7H16+C8H18+C9H20+3.0NC10H22+3.8333333C15H32+0.1666667C21H43_T+LC5H8+DIALLYL+C7H12+C8H14+C9H16+3.0C10H18+5.3333333C15H28+1.6666667C21H40+2.0C4H8-1+2.0NC5H10+2.0NC6H12+2.0NC7H14+2.0C8H16+2.0C9H18+6.0NC10H20+9.5C15H30+1.5C21H42+C3H6 1.64e+09 1 27000
	FORD/C39H76 0/
	FORD/C39H78 1/
	FORD/C39H80 0/
	FORD/C21H41 1/
!!         C21H39(L)         !!
! Beta_secondary !
6.5C15H28+13.0C15H30+6.5C15H32+26.0C21H39=>6.5C15H27+13.0C15H29+6.5C15H31+2.0C4H8-1+2.0NC5H10+2.0NC6H12+2.0NC7H14+2.0C8H16+2.0C9H18+6.0NC10H20+7.6666667C15H30+0.3333333C21H42+2.0LC5H8+2.0DIALLYL+2.0C7H12+2.0C8H14+2.0C9H16+6.0C10H18+9.0C15H28+C21H40 1.64e+09 1 27000
	FORD/C15H28 0/