THERMO
   300.0   1000.0   3000.0


N2                G 8/02N   2    0    0    0G   200.000  6000.00  1000.00      1
 2.95257637E+00 1.39690040E-03-4.92631603E-07 7.86010195E-11-4.60755204E-15    2
-9.23948688E+02 5.87188762E+00 3.53100528E+00-1.23660988E-04-5.02999433E-07    3
 2.43530612E-09-1.40881235E-12-1.04697628E+03 2.96747038E+00 0.00000000E+00    4

N2(L)             G 8/02N   2    0    0    0G   200.000  6000.00  1000.00      1
 2.95257637E+00 1.39690040E-03-4.92631603E-07 7.86010195E-11-4.60755204E-15    2
-9.23948688E+02 5.87188762E+00 3.53100528E+00-1.23660988E-04-5.02999433E-07    3
 2.43530612E-09-1.40881235E-12-1.04697628E+03 2.96747038E+00 0.00000000E+00    4

HE                      HE  1               G    200.00   3500.00  850.00      1
 2.50020615e+00-5.42576298e-07 4.63926302e-10-1.57302170e-13 1.82971406e-17    2
-7.45426807e+02 9.27648988e-01 2.49964853e+00 2.08151569e-06-4.16682427e-09    3
 3.47465907e-12-1.04992675e-15-7.45332012e+02 9.30248556e-01                   4

HE(L)                   C   0H   1O   0N   0G    200.00   2000.00 2000.00      1
 .299142300E+01 .700064410E-03-.563382800E-07-.923157820E-11 .158275200E-14    2
-.835033800E+03-.135511000E+01 .329812400E+01 .824944120E-03-.814301470E-06    3
-.947543430E-10 .413487200E-12-.101252100E+04-.329409400E+01                   4
HE                      C   0H   1O   0N   0G    200.00   2000.00 2000.00      1
 .299142300E+01 .700064410E-03-.563382800E-07-.923157820E-11 .158275200E-14    2
-.835033800E+03-.135511000E+01 .329812400E+01 .824944120E-03-.814301470E-06    3
-.947543430E-10 .413487200E-12-.101252100E+04-.329409400E+01                   4
P-C21H42-P_S(L)         C  21H  42O   0N   0G    200.00   2000.00 1500.00      1
-2.61052324E+02 1.45093204E+00-1.81046861E-03 9.98928011E-07-2.01970587E-10    2
-3.49547842E+04 1.18463798E+03-2.61052324E+02 1.45093204E+00-1.81046861E-03    3
 9.98928011E-07-2.01970587E-10-3.49547842E+04 1.18463798E+03                   4 
P-C21H42-P_S            C  21H  42O   0N   0G    200.00   2000.00 1500.00      1
-2.61052324E+02 1.45093204E+00-1.81046861E-03 9.98928011E-07-2.01970587E-10    2
-3.49547842E+04 1.18463798E+03-2.61052324E+02 1.45093204E+00-1.81046861E-03    3
 9.98928011E-07-2.01970587E-10-3.49547842E+04 1.18463798E+03                   4 
P-C21H42-P(L)           C  21H  42O   0N   0G    200.00   2000.00 2000.00      1
-7.10136006E+00 2.71465351E-01-1.89189468E-04 6.51831254E-08-8.45026957E-12    2
-6.05198049E+04 7.04878314E+01-7.10136006E+00 2.71465351E-01-1.89189468E-04    3
 6.51831254E-08-8.45026957E-12-6.05198049E+04 7.04878314E+01                   4 
P-C21H42-P              C  21H  42O   0N   0G    200.00   2000.00 2000.00      1
-7.10136006E+00 2.71465351E-01-1.89189468E-04 6.51831254E-08-8.45026957E-12    2
-6.05198049E+04 7.04878314E+01-7.10136006E+00 2.71465351E-01-1.89189468E-04    3
 6.51831254E-08-8.45026957E-12-6.05198049E+04 7.04878314E+01                   4 
P-C21H41-P(L)           C  21H  41O   0N   0G    200.00   2000.00 2000.00      1
-6.34263976E+00 2.65021362E-01-1.82854512E-04 6.12545149E-08-7.38952602E-12    2
-3.73329046E+04 6.91241927E+01-6.34263976E+00 2.65021362E-01-1.82854512E-04    3
 6.12545149E-08-7.38952602E-12-3.73329046E+04 6.91241927E+01                   4 
P-C21H41-P              C  21H  41O   0N   0G    200.00   2000.00 2000.00      1
-6.34263976E+00 2.65021362E-01-1.82854512E-04 6.12545149E-08-7.38952602E-12    2
-3.73329046E+04 6.91241927E+01-6.34263976E+00 2.65021362E-01-1.82854512E-04    3
 6.12545149E-08-7.38952602E-12-3.73329046E+04 6.91241927E+01                   4 
P-C21H43(L)             C  21H  43O   0N   0G    200.00   2000.00 2000.00      1
-6.10074950E+00 2.66534285E-01-1.78079960E-04 5.69519471E-08-6.33757827E-12    2
-6.31999684E+04 7.47853182E+01-6.10074950E+00 2.66534285E-01-1.78079960E-04    3
 5.69519471E-08-6.33757827E-12-6.31999684E+04 7.47853182E+01                   4 
P-C21H43                C  21H  43O   0N   0G    200.00   2000.00 2000.00      1
-6.10074950E+00 2.66534285E-01-1.78079960E-04 5.69519471E-08-6.33757827E-12    2
-6.31999684E+04 7.47853182E+01-6.10074950E+00 2.66534285E-01-1.78079960E-04    3
 5.69519471E-08-6.33757827E-12-6.31999684E+04 7.47853182E+01                   4 
P-C21H41(L)             C  21H  41O   0N   0G    200.00   2000.00 2000.00      1
-5.97921163E+00 2.60620368E-01-1.76629683E-04 5.80800852E-08-6.88924085E-12    2
-4.79182394E+04 7.45254465E+01-5.97921163E+00 2.60620368E-01-1.76629683E-04    3
 5.80800852E-08-6.88924085E-12-4.79182394E+04 7.45254465E+01                   4 
P-C21H41                C  21H  41O   0N   0G    200.00   2000.00 2000.00      1
-5.97921163E+00 2.60620368E-01-1.76629683E-04 5.80800852E-08-6.88924085E-12    2
-4.79182394E+04 7.45254465E+01-5.97921163E+00 2.60620368E-01-1.76629683E-04    3
 5.80800852E-08-6.88924085E-12-4.79182394E+04 7.45254465E+01                   4 
P-C21H42(L)             C  21H  42O   0N   0G    200.00   2000.00 2000.00      1
-5.34202920E+00 2.60090297E-01-1.71745003E-04 5.30233365E-08-5.27683472E-12    2
-4.00130681E+04 7.34216795E+01-5.34202920E+00 2.60090297E-01-1.71745003E-04    3
 5.30233365E-08-5.27683472E-12-4.00130681E+04 7.34216795E+01                   4 
P-C21H42                C  21H  42O   0N   0G    200.00   2000.00 2000.00      1
-5.34202920E+00 2.60090297E-01-1.71745003E-04 5.30233365E-08-5.27683472E-12    2
-4.00130681E+04 7.34216795E+01-5.34202920E+00 2.60090297E-01-1.71745003E-04    3
 5.30233365E-08-5.27683472E-12-4.00130681E+04 7.34216795E+01                   4 
P-C21H42_T(L)           C  21H  42O   0N   0G    200.00   2000.00 2000.00      1
-6.27218404E+00 2.65773569E-01-1.78454668E-04 5.55131191E-08-5.41800513E-12    2
-3.83641253E+04 7.69821068E+01-6.27218404E+00 2.65773569E-01-1.78454668E-04    3
 5.55131191E-08-5.41800513E-12-3.83641253E+04 7.69821068E+01                   4 
P-C21H42_T              C  21H  42O   0N   0G    200.00   2000.00 2000.00      1
-6.27218404E+00 2.65773569E-01-1.78454668E-04 5.55131191E-08-5.41800513E-12    2
-3.83641253E+04 7.69821068E+01-6.27218404E+00 2.65773569E-01-1.78454668E-04    3
 5.55131191E-08-5.41800513E-12-3.83641253E+04 7.69821068E+01                   4 
P-C21H40(L)             C  21H  40O   0N   0G    200.00   2000.00 2000.00      1
-5.22049133E+00 2.54176379E-01-1.70294726E-04 5.41514747E-08-5.82849730E-12    2
-2.47313391E+04 7.31618078E+01-5.22049133E+00 2.54176379E-01-1.70294726E-04    3
 5.41514747E-08-5.82849730E-12-2.47313391E+04 7.31618078E+01                   4 
P-C21H40                C  21H  40O   0N   0G    200.00   2000.00 2000.00      1
-5.22049133E+00 2.54176379E-01-1.70294726E-04 5.41514747E-08-5.82849730E-12    2
-2.47313391E+04 7.31618078E+01-5.22049133E+00 2.54176379E-01-1.70294726E-04    3
 5.41514747E-08-5.82849730E-12-2.47313391E+04 7.31618078E+01                   4 
P-C21H40_A(L)           C  21H  40O   0N   0G    200.00   2000.00 2000.00      1
-6.70888434E+00 2.58059921E-01-1.68171542E-04 4.81303332E-08-3.45951463E-12    2
-3.07925412E+04 7.69215994E+01-6.70888434E+00 2.58059921E-01-1.68171542E-04    3
 4.81303332E-08-3.45951463E-12-3.07925412E+04 7.69215994E+01                   4 
P-C21H40_A              C  21H  40O   0N   0G    200.00   2000.00 2000.00      1
-6.70888434E+00 2.58059921E-01-1.68171542E-04 4.81303332E-08-3.45951463E-12    2
-3.07925412E+04 7.69215994E+01-6.70888434E+00 2.58059921E-01-1.68171542E-04    3
 4.81303332E-08-3.45951463E-12-3.07925412E+04 7.69215994E+01                   4 
CH4(L)                  C   1H   4O   0N   0G    200.00   2000.00 2000.00      1
 3.66775286E+00-2.63278749E-03 2.05103874E-05-1.73297690E-08 4.65239036E-12    2
-1.00858605E+04-1.45682596E+00 3.66775286E+00-2.63278749E-03 2.05103874E-05    3
-1.73297690E-08 4.65239036E-12-1.00858605E+04-1.45682596E+00                   4 
CH4                     C   1H   4O   0N   0G    200.00   2000.00 2000.00      1
 3.66775286E+00-2.63278749E-03 2.05103874E-05-1.73297690E-08 4.65239036E-12    2
-1.00858605E+04-1.45682596E+00 3.66775286E+00-2.63278749E-03 2.05103874E-05    3
-1.73297690E-08 4.65239036E-12-1.00858605E+04-1.45682596E+00                   4 
C2H6(L)                 C   2H   6O   0N   0G    200.00   2000.00 2000.00      1
 1.32490112E+00 1.59917120E-02 4.20097262E-06-1.02544400E-08 3.42059504E-12    2
-1.11241178E+04 1.53081004E+01 1.32490112E+00 1.59917120E-02 4.20097262E-06    3
-1.02544400E-08 3.42059504E-12-1.11241178E+04 1.53081004E+01                   4 
C2H6                    C   2H   6O   0N   0G    200.00   2000.00 2000.00      1
 1.32490112E+00 1.59917120E-02 4.20097262E-06-1.02544400E-08 3.42059504E-12    2
-1.11241178E+04 1.53081004E+01 1.32490112E+00 1.59917120E-02 4.20097262E-06    3
-1.02544400E-08 3.42059504E-12-1.11241178E+04 1.53081004E+01                   4 
C3H8(L)                 C   3H   8O   0N   0G    200.00   2000.00  383.85      1
 9.86741119E-01 2.89186335E-02-4.80804969E-06-7.15048163E-09 3.01820125E-12    2
-1.40060133E+04 1.86646638E+01 9.10235960E+01-1.83674157E+00 1.46495200E-02    3
-4.87022624E-05 5.88540779E-08-2.11894644E+04-2.81842457E+02                   4 
C3H8                    C   3H   8O   0N   0G    200.00   2000.00  383.85      1
 9.86741119E-01 2.89186335E-02-4.80804969E-06-7.15048163E-09 3.01820125E-12    2
-1.40060133E+04 1.86646638E+01 9.86741119E-01 2.89186335E-02-4.80804969E-06    3
-7.15048163E-09 3.01820125E-12-1.40060133E+04 1.86646638E+01                   4 
NC4H10(L)               C   4H  10O   0N   0G    200.00   2000.00 2000.00      1
 6.48581116E-01 4.18455549E-02-1.38170720E-05-4.04652328E-09 2.61580746E-12    2
-1.68879087E+04 2.20212272E+01 6.48581116E-01 4.18455549E-02-1.38170720E-05    3
-4.04652328E-09 2.61580746E-12-1.68879087E+04 2.20212272E+01                   4 
NC4H10                  C   4H  10O   0N   0G    200.00   2000.00 2000.00      1
 6.48581116E-01 4.18455549E-02-1.38170720E-05-4.04652328E-09 2.61580746E-12    2
-1.68879087E+04 2.20212272E+01 6.48581116E-01 4.18455549E-02-1.38170720E-05    3
-4.04652328E-09 2.61580746E-12-1.68879087E+04 2.20212272E+01                   4 
NC5H12(L)               C   5H  12O   0N   0G    200.00   2000.00 2000.00      1
 3.10421113E-01 5.47724764E-02-2.28260943E-05-9.42564927E-10 2.21341367E-12    2
-1.97698042E+04 2.53777906E+01 3.10421113E-01 5.47724764E-02-2.28260943E-05    3
-9.42564927E-10 2.21341367E-12-1.97698042E+04 2.53777906E+01                   4 
NC5H12                  C   5H  12O   0N   0G    200.00   2000.00 2000.00      1
 3.10421113E-01 5.47724764E-02-2.28260943E-05-9.42564927E-10 2.21341367E-12    2
-1.97698042E+04 2.53777906E+01 3.10421113E-01 5.47724764E-02-2.28260943E-05    3
-9.42564927E-10 2.21341367E-12-1.97698042E+04 2.53777906E+01                   4 
C6H14(L)                C   6H  14O   0N   0G    200.00   2000.00  531.62      1
-2.77388897E-02 6.76993979E-02-3.18351166E-05 2.16139343E-09 1.81101988E-12    2
-2.26516997E+04 2.87343540E+01 3.99915621E+01-5.85822964E-01 4.16434783E-03    3
-1.10617237E-05 1.04494610E-08-2.95314856E+04-1.22388056E+02                   4 
C6H14                   C   6H  14O   0N   0G    200.00   2000.00  531.62      1
-2.77388897E-02 6.76993979E-02-3.18351166E-05 2.16139343E-09 1.81101988E-12    2
-2.26516997E+04 2.87343540E+01-2.77388897E-02 6.76993979E-02-3.18351166E-05    3
 2.16139343E-09 1.81101988E-12-2.26516997E+04 2.87343540E+01                   4 
NC7H16(L)               C   7H  16O   0N   0G    200.00   2000.00 2000.00      1
-3.65898892E-01 8.06263194E-02-4.08441389E-05 5.26535178E-09 1.40862609E-12    2
-2.55335952E+04 3.20909174E+01-3.65898892E-01 8.06263194E-02-4.08441389E-05    3
 5.26535178E-09 1.40862609E-12-2.55335952E+04 3.20909174E+01                   4 
NC7H16                  C   7H  16O   0N   0G    200.00   2000.00 2000.00      1
-3.65898892E-01 8.06263194E-02-4.08441389E-05 5.26535178E-09 1.40862609E-12    2
-2.55335952E+04 3.20909174E+01-3.65898892E-01 8.06263194E-02-4.08441389E-05    3
 5.26535178E-09 1.40862609E-12-2.55335952E+04 3.20909174E+01                   4 
C8H18(L)                C   8H  18O   0N   0G    200.00   2000.00  598.27      1
-7.04058895E-01 9.35532408E-02-4.98531612E-05 8.36931013E-09 1.00623230E-12    2
-2.84154906E+04 3.54474808E+01 2.92938717E+01-3.43753678E-01 2.58624579E-03    3
-6.43422239E-06 5.62857563E-09-3.61876668E+04-8.67334802E+01                   4 
C8H18                   C   8H  18O   0N   0G    200.00   2000.00  598.27      1
-7.04058895E-01 9.35532408E-02-4.98531612E-05 8.36931013E-09 1.00623230E-12    2
-2.84154906E+04 3.54474808E+01-7.04058895E-01 9.35532408E-02-4.98531612E-05    3
 8.36931013E-09 1.00623230E-12-2.84154906E+04 3.54474808E+01                   4 
C9H20(L)                C   9H  20O   0N   0G    200.00   2000.00  622.60      1
-1.04221890E+00 1.06480162E-01-5.88621835E-05 1.14732685E-08 6.03838513E-13    2
-3.12973861E+04 3.88040442E+01 2.67768058E+01-2.80742983E-01 2.21956864E-03    3
-5.39623616E-06 4.58436331E-09-3.94874380E+04-7.76511721E+01                   4 
C9H20                   C   9H  20O   0N   0G    200.00   2000.00  622.60      1
-1.04221890E+00 1.06480162E-01-5.88621835E-05 1.14732685E-08 6.03838513E-13    2
-3.12973861E+04 3.88040442E+01-1.04221890E+00 1.06480162E-01-5.88621835E-05    3
 1.14732685E-08 6.03838513E-13-3.12973861E+04 3.88040442E+01                   4 
NC10H22(L)              C  10H  22O   0N   0G    200.00   2000.00 2000.00      1
-1.38037890E+00 1.19407084E-01-6.78712058E-05 1.45772268E-08 2.01444723E-13    2
-3.41792816E+04 4.21606076E+01-1.38037890E+00 1.19407084E-01-6.78712058E-05    3
 1.45772268E-08 2.01444723E-13-3.41792816E+04 4.21606076E+01                   4 
NC10H22                 C  10H  22O   0N   0G    200.00   2000.00 2000.00      1
-1.38037890E+00 1.19407084E-01-6.78712058E-05 1.45772268E-08 2.01444723E-13    2
-3.41792816E+04 4.21606076E+01-1.38037890E+00 1.19407084E-01-6.78712058E-05    3
 1.45772268E-08 2.01444723E-13-3.41792816E+04 4.21606076E+01                   4 
C2H4(L)                 C   2H   4O   0N   0G    200.00   2000.00 2000.00      1
 5.52229738E-01 1.73771352E-02-7.04428529E-06-3.10197256E-10 6.99587116E-13    2
 5.51323345E+03 1.87631795E+01 5.52229738E-01 1.73771352E-02-7.04428529E-06    3
-3.10197256E-10 6.99587116E-13 5.51323345E+03 1.87631795E+01                   4 
C2H4                    C   2H   4O   0N   0G    200.00   2000.00 2000.00      1
 5.52229738E-01 1.73771352E-02-7.04428529E-06-3.10197256E-10 6.99587116E-13    2
 5.51323345E+03 1.87631795E+01 5.52229738E-01 1.73771352E-02-7.04428529E-06    3
-3.10197256E-10 6.99587116E-13 5.51323345E+03 1.87631795E+01                   4 
C3H6(L)                 C   3H   6O   0N   0G    200.00   2000.00  397.63      1
 1.43451610E+00 2.29623781E-02-3.57660669E-06-5.98693905E-09 2.51118188E-12    2
 1.16850275E+03 1.73134202E+01 1.27721276E+02-2.52706226E+00 1.96974524E-02    3
-6.42083060E-05 7.60699400E-08-1.03031598E+04-4.11984681E+02                   4 
C3H6                    C   3H   6O   0N   0G    200.00   2000.00  397.63      1
 1.43451610E+00 2.29623781E-02-3.57660669E-06-5.98693905E-09 2.51118188E-12    2
 1.16850275E+03 1.73134202E+01 1.43451610E+00 2.29623781E-02-3.57660669E-06    3
-5.98693905E-09 2.51118188E-12 1.16850275E+03 1.73134202E+01                   4 
C4H8-1(L)               C   4H   8O   0N   0G    200.00   2000.00 2000.00      1
 7.70118981E-01 3.59316371E-02-1.23667953E-05-2.91838512E-09 2.06414488E-12    2
-1.60617981E+03 2.24545027E+01 7.70118981E-01 3.59316371E-02-1.23667953E-05    3
-2.91838512E-09 2.06414488E-12-1.60617981E+03 2.24545027E+01                   4 
C4H8-1                  C   4H   8O   0N   0G    200.00   2000.00 2000.00      1
 7.70118981E-01 3.59316371E-02-1.23667953E-05-2.91838512E-09 2.06414488E-12    2
-1.60617981E+03 2.24545027E+01 7.70118981E-01 3.59316371E-02-1.23667953E-05    3
-2.91838512E-09 2.06414488E-12-1.60617981E+03 2.24545027E+01                   4 
NC5H10(L)               C   5H  10O   0N   0G    200.00   2000.00 2000.00      1
 4.31958978E-01 4.88585586E-02-2.13758176E-05 1.85573232E-10 1.66175109E-12    2
-4.48807528E+03 2.58110661E+01 4.31958978E-01 4.88585586E-02-2.13758176E-05    3
 1.85573232E-10 1.66175109E-12-4.48807528E+03 2.58110661E+01                   4 
NC5H10                  C   5H  10O   0N   0G    200.00   2000.00 2000.00      1
 4.31958978E-01 4.88585586E-02-2.13758176E-05 1.85573232E-10 1.66175109E-12    2
-4.48807528E+03 2.58110661E+01 4.31958978E-01 4.88585586E-02-2.13758176E-05    3
 1.85573232E-10 1.66175109E-12-4.48807528E+03 2.58110661E+01                   4 
NC6H12(L)               C   6H  12O   0N   0G    200.00   2000.00 2000.00      1
 9.37989751E-02 6.17854800E-02-3.03848399E-05 3.28953159E-09 1.25935730E-12    2
-7.36997076E+03 2.91676295E+01 9.37989751E-02 6.17854800E-02-3.03848399E-05    3
 3.28953159E-09 1.25935730E-12-7.36997076E+03 2.91676295E+01                   4 
NC6H12                  C   6H  12O   0N   0G    200.00   2000.00 2000.00      1
 9.37989751E-02 6.17854800E-02-3.03848399E-05 3.28953159E-09 1.25935730E-12    2
-7.36997076E+03 2.91676295E+01 9.37989751E-02 6.17854800E-02-3.03848399E-05    3
 3.28953159E-09 1.25935730E-12-7.36997076E+03 2.91676295E+01                   4 
NC7H14(L)               C   7H  14O   0N   0G    200.00   2000.00 2000.00      1
-2.44361028E-01 7.47124015E-02-3.93938622E-05 6.39348994E-09 8.56963508E-13    2
-1.02518662E+04 3.25241929E+01-2.44361028E-01 7.47124015E-02-3.93938622E-05    3
 6.39348994E-09 8.56963508E-13-1.02518662E+04 3.25241929E+01                   4 
NC7H14                  C   7H  14O   0N   0G    200.00   2000.00 2000.00      1
-2.44361028E-01 7.47124015E-02-3.93938622E-05 6.39348994E-09 8.56963508E-13    2
-1.02518662E+04 3.25241929E+01-2.44361028E-01 7.47124015E-02-3.93938622E-05    3
 6.39348994E-09 8.56963508E-13-1.02518662E+04 3.25241929E+01                   4 
C8H16(L)                C   8H  16O   0N   0G    200.00   2000.00  604.76      1
-5.82521031E-01 8.76393230E-02-4.84028845E-05 9.49744829E-09 4.54569719E-13    2
-1.31337617E+04 3.58807563E+01 3.50371357E+01-4.24767214E-01 3.01877289E-03    3
-7.42319952E-06 6.43649446E-09-2.26851914E+04-1.10323584E+02                   4 
C8H16                   C   8H  16O   0N   0G    200.00   2000.00  604.76      1
-5.82521031E-01 8.76393230E-02-4.84028845E-05 9.49744829E-09 4.54569719E-13    2
-1.31337617E+04 3.58807563E+01-5.82521031E-01 8.76393230E-02-4.84028845E-05    3
 9.49744829E-09 4.54569719E-13-1.31337617E+04 3.58807563E+01                   4 
C9H18(L)                C   9H  18O   0N   0G    200.00   2000.00  632.32      1
-9.20681033E-01 1.00566244E-01-5.74119068E-05 1.26014066E-08 5.21759296E-14    2
-1.60156572E+04 3.92373197E+01 3.17319702E+01-3.48400209E-01 2.56776708E-03    3
-6.17071512E-06 5.20037670E-09-2.61549398E+04-9.85979706E+01                   4 
C9H18                   C   9H  18O   0N   0G    200.00   2000.00  632.32      1
-9.20681033E-01 1.00566244E-01-5.74119068E-05 1.26014066E-08 5.21759296E-14    2
-1.60156572E+04 3.92373197E+01-9.20681033E-01 1.00566244E-01-5.74119068E-05    3
 1.26014066E-08 5.21759296E-14-1.60156572E+04 3.92373197E+01                   4 
NC10H20(L)              C  10H  20O   0N   0G    200.00   2000.00 2000.00      1
-1.25884104E+00 1.13493166E-01-6.64209291E-05 1.57053650E-08-3.50217860E-13    2
-1.88975526E+04 4.25938831E+01-1.25884104E+00 1.13493166E-01-6.64209291E-05    3
 1.57053650E-08-3.50217860E-13-1.88975526E+04 4.25938831E+01                   4 
NC10H20                 C  10H  20O   0N   0G    200.00   2000.00 2000.00      1
-1.25884104E+00 1.13493166E-01-6.64209291E-05 1.57053650E-08-3.50217860E-13    2
-1.88975526E+04 4.25938831E+01-1.25884104E+00 1.13493166E-01-6.64209291E-05    3
 1.57053650E-08-3.50217860E-13-1.88975526E+04 4.25938831E+01                   4 
C4H6(L)                 C   4H   6O   0N   0G    200.00   2000.00  468.15      1
-3.02661718E+00 5.82168862E-02-6.45065203E-05 3.93573292E-08-9.59324783E-12    2
 1.20215341E+04 3.61114505E+01 9.36184358E+01-1.67429876E+00 1.20789614E-02    3
-3.53405178E-05 3.72019093E-08-1.19035103E+03-3.14545137E+02                   4 
C4H6                    C   4H   6O   0N   0G    200.00   2000.00  468.15      1
-3.02661718E+00 5.82168862E-02-6.45065203E-05 3.93573292E-08-9.59324783E-12    2
 1.20215341E+04 3.61114505E+01-3.02661718E+00 5.82168862E-02-6.45065203E-05    3
 3.93573292E-08-9.59324783E-12 1.20215341E+04 3.61114505E+01                   4 
LC5H8(L)                C   5H   8O   0N   0G    200.00   2000.00 2000.00      1
 2.15336840E-01 5.58715622E-02-2.89345631E-05 4.41766975E-09 7.07694714E-13    2
 7.91175817E+03 2.82146106E+01 2.15336840E-01 5.58715622E-02-2.89345631E-05    3
 4.41766975E-09 7.07694714E-13 7.91175817E+03 2.82146106E+01                   4 
LC5H8                   C   5H   8O   0N   0G    200.00   2000.00 2000.00      1
 2.15336840E-01 5.58715622E-02-2.89345631E-05 4.41766975E-09 7.07694714E-13    2
 7.91175817E+03 2.82146106E+01 2.15336840E-01 5.58715622E-02-2.89345631E-05    3
 4.41766975E-09 7.07694714E-13 7.91175817E+03 2.82146106E+01                   4 
DIALLYL(L)              C   6H  10O   0N   0G    200.00   2000.00 2000.00      1
 2.15336840E-01 5.58715622E-02-2.89345631E-05 4.41766975E-09 7.07694714E-13    2
 7.91175817E+03 2.82146106E+01 2.15336840E-01 5.58715622E-02-2.89345631E-05    3
 4.41766975E-09 7.07694714E-13 7.91175817E+03 2.82146106E+01                   4 
DIALLYL                 C   6H  10O   0N   0G    200.00   2000.00 2000.00      1
 2.15336840E-01 5.58715622E-02-2.89345631E-05 4.41766975E-09 7.07694714E-13    2
 7.91175817E+03 2.82146106E+01 2.15336840E-01 5.58715622E-02-2.89345631E-05    3
 4.41766975E-09 7.07694714E-13 7.91175817E+03 2.82146106E+01                   4 
C7H12(L)                C   7H  12O   0N   0G    200.00   2000.00  584.70      1
-1.22823163E-01 6.87984837E-02-3.79435854E-05 7.52162810E-09 3.05300925E-13    2
 5.02986270E+03 3.15711740E+01 4.61600305E+01-6.22168254E-01 4.18076971E-03    3
-1.04632370E-05 9.29243527E-09-6.07432563E+03-1.54120112E+02                   4 
C7H12                   C   7H  12O   0N   0G    200.00   2000.00  584.70      1
-1.22823163E-01 6.87984837E-02-3.79435854E-05 7.52162810E-09 3.05300925E-13    2
 5.02986270E+03 3.15711740E+01-1.22823163E-01 6.87984837E-02-3.79435854E-05    3
 7.52162810E-09 3.05300925E-13 5.02986270E+03 3.15711740E+01                   4 
C8H14(L)                C   8H  14O   0N   0G    200.00   2000.00  614.16      1
-4.60983166E-01 8.17254051E-02-4.69526077E-05 1.06255865E-08-9.70928641E-14    2
 2.14796722E+03 3.49277374E+01 4.01772681E+01-4.95177590E-01 3.38238573E-03    3
-8.23008689E-06 7.07428746E-09-9.34038158E+03-1.33688667E+02                   4 
C8H14                   C   8H  14O   0N   0G    200.00   2000.00  614.16      1
-4.60983166E-01 8.17254051E-02-4.69526077E-05 1.06255865E-08-9.70928641E-14    2
 2.14796722E+03 3.49277374E+01-4.60983166E-01 8.17254051E-02-4.69526077E-05    3
 1.06255865E-08-9.70928641E-14 2.14796722E+03 3.49277374E+01                   4 
C9H16(L)                C   9H  16O   0N   0G    200.00   2000.00  638.39      1
-7.99143169E-01 9.46523266E-02-5.59616301E-05 1.37295448E-08-4.99486653E-13    2
-7.33928248E+02 3.82843008E+01 3.62535413E+01-4.08623492E-01 2.86852587E-03    3
-6.82268430E-06 5.70469133E-09-1.25764613E+04-1.19685544E+02                   4 
C9H16                   C   9H  16O   0N   0G    200.00   2000.00  638.39      1
-7.99143169E-01 9.46523266E-02-5.59616301E-05 1.37295448E-08-4.99486653E-13    2
-7.33928248E+02 3.82843008E+01-7.99143169E-01 9.46523266E-02-5.59616301E-05    3
 1.37295448E-08-4.99486653E-13-7.33928248E+02 3.82843008E+01                   4 
C10H18(L)               C  10H  18O   0N   0G    200.00   2000.00  660.29      1
-1.13730317E+00 1.07579248E-01-6.49706524E-05 1.68335032E-08-9.01880442E-13    2
-3.61582372E+03 4.16408642E+01 3.35222492E+01-3.45138020E-01 2.51466016E-03    3
-5.87113989E-06 4.79399106E-09-1.59135642E+04-1.09215393E+02                   4 
C10H18                  C  10H  18O   0N   0G    200.00   2000.00  660.29      1
-1.13730317E+00 1.07579248E-01-6.49706524E-05 1.68335032E-08-9.01880442E-13    2
-3.61582372E+03 4.16408642E+01-1.13730317E+00 1.07579248E-01-6.49706524E-05    3
 1.68335032E-08-9.01880442E-13-3.61582372E+03 4.16408642E+01                   4 
C15H32(L)               C  15H  32O   0N   0G    200.00   2000.00  726.26      1
-3.07117892E+00 1.84041691E-01-1.12916317E-04 3.00970186E-08-1.81052422E-12    2
-4.85887589E+04 5.89434246E+01 2.93763642E+01-2.16951158E-01 1.99178188E-03    3
-4.35876268E-06 3.23352211E-09-6.06416777E+04-8.28932888E+01                   4 
C15H32                  C  15H  32O   0N   0G    200.00   2000.00  726.26      1
-3.07117892E+00 1.84041691E-01-1.12916317E-04 3.00970186E-08-1.81052422E-12    2
-4.85887589E+04 5.89434246E+01-3.07117892E+00 1.84041691E-01-1.12916317E-04    3
 3.00970186E-08-1.81052422E-12-4.85887589E+04 5.89434246E+01                   4 
C15H30(L)               C  15H  30O   0N   0G    200.00   2000.00  735.76      1
-2.94964105E+00 1.78127773E-01-1.11466041E-04 3.12251568E-08-2.36218681E-12    2
-3.33070300E+04 5.93767001E+01 3.32418235E+01-2.65854568E-01 2.20972489E-03    3
-4.78627183E-06 3.53173784E-09-4.73988393E+04-9.97694537E+01                   4 
C15H30                  C  15H  30O   0N   0G    200.00   2000.00  735.76      1
-2.94964105E+00 1.78127773E-01-1.11466041E-04 3.12251568E-08-2.36218681E-12    2
-3.33070300E+04 5.93767001E+01-2.94964105E+00 1.78127773E-01-1.11466041E-04    3
 3.12251568E-08-2.36218681E-12-3.33070300E+04 5.93767001E+01                   4 
C15H28(L)               C  15H  28O   0N   0G    200.00   2000.00  739.84      1
-2.82810319E+00 1.72213855E-01-1.10015764E-04 3.23532949E-08-2.91384939E-12    2
-1.80253011E+04 5.84236812E+01 3.69274230E+01-3.11927426E-01 2.41125821E-03    3
-5.17589462E-06 3.79943577E-09-3.37399250E+04-1.17101409E+02                   4 
C15H28                  C  15H  28O   0N   0G    200.00   2000.00  739.84      1
-2.82810319E+00 1.72213855E-01-1.10015764E-04 3.23532949E-08-2.91384939E-12    2
-1.80253011E+04 5.84236812E+01-2.82810319E+00 1.72213855E-01-1.10015764E-04    3
 3.23532949E-08-2.91384939E-12-1.80253011E+04 5.84236812E+01                   4 
C21H44(L)               C  21H  44O   0N   0G    200.00   2000.00  797.73      1
-5.10013893E+00 2.61603220E-01-1.66970451E-04 4.87207687E-08-4.22488696E-12    2
-6.58801318E+04 7.90828051E+01 2.77383196E+01-1.04911846E-01 1.65660391E-03    3
-3.51697378E-06 2.45609416E-09-8.20089797E+04-7.31987755E+01                   4 
C21H44                  C  21H  44O   0N   0G    200.00   2000.00  797.73      1
-5.10013893E+00 2.61603220E-01-1.66970451E-04 4.87207687E-08-4.22488696E-12    2
-6.58801318E+04 7.90828051E+01-5.10013893E+00 2.61603220E-01-1.66970451E-04    3
 4.87207687E-08-4.22488696E-12-6.58801318E+04 7.90828051E+01                   4 
C21H42(L)               C  21H  42O   0N   0G    200.00   2000.00  800.84      1
-4.97860107E+00 2.55689302E-01-1.65520174E-04 4.98489069E-08-4.77654954E-12    2
-5.05984029E+04 7.95160805E+01 3.07127238E+01-1.40462154E-01 1.79990249E-03    3
-3.78003889E-06 2.62853604E-09-6.82985786E+04-8.64459518E+01                   4 
C21H42                  C  21H  42O   0N   0G    200.00   2000.00  800.84      1
-4.97860107E+00 2.55689302E-01-1.65520174E-04 4.98489069E-08-4.77654954E-12    2
-5.05984029E+04 7.95160805E+01-4.97860107E+00 2.55689302E-01-1.65520174E-04    3
 4.98489069E-08-4.77654954E-12-5.05984029E+04 7.95160805E+01                   4 
C21H40(L)               C  21H  40O   0N   0G    200.00   2000.00  804.06      1
-4.85706320E+00 2.49775384E-01-1.64069898E-04 5.09770450E-08-5.32821212E-12    2
-3.53166739E+04 7.85630617E+01 3.35997809E+01-1.74716143E-01 1.93599404E-03    3
-4.02731795E-06 2.78895844E-09-5.45826159E+04-1.00770894E+02                   4 
C21H40                  C  21H  40O   0N   0G    200.00   2000.00  804.06      1
-4.85706320E+00 2.49775384E-01-1.64069898E-04 5.09770450E-08-5.32821212E-12    2
-3.53166739E+04 7.85630617E+01-4.85706320E+00 2.49775384E-01-1.64069898E-04    3
 5.09770450E-08-5.32821212E-12-3.53166739E+04 7.85630617E+01                   4 
C30H62(L)               C  30H  62O   0N   0G    200.00   2000.00  865.84      1
-8.14357896E+00 3.77945513E-01-2.48051652E-04 7.66563939E-08-7.84643106E-12    2
-9.18171910E+04 1.09291876E+02 2.77382128E+01 1.51166581E-02 1.46906878E-03    3
-3.08412477E-06 2.04200362E-09-1.13810558E+05-6.67432309E+01                   4 
C30H62                  C  30H  62O   0N   0G    200.00   2000.00  865.84      1
-8.14357896E+00 3.77945513E-01-2.48051652E-04 7.66563939E-08-7.84643106E-12    2
-9.18171910E+04 1.09291876E+02-8.14357896E+00 3.77945513E-01-2.48051652E-04    3
 7.66563939E-08-7.84643106E-12-9.18171910E+04 1.09291876E+02                   4 
C30H60(L)               C  30H  60O   0N   0G    200.00   2000.00  868.14      1
-8.02204109E+00 3.72031595E-01-2.46601375E-04 7.77845321E-08-8.39809364E-12    2
-7.65354621E+04 1.09725151E+02 3.01254171E+01-1.21407464E-02 1.56784871E-03    3
-3.25399392E-06 2.14693265E-09-1.00055055E+05-7.76870449E+01                   4 
C30H60                  C  30H  60O   0N   0G    200.00   2000.00  868.14      1
-8.02204109E+00 3.72031595E-01-2.46601375E-04 7.77845321E-08-8.39809364E-12    2
-7.65354621E+04 1.09725151E+02-8.02204109E+00 3.72031595E-01-2.46601375E-04    3
 7.77845321E-08-8.39809364E-12-7.65354621E+04 1.09725151E+02                   4 
C30H58(L)               C  30H  58O   0N   0G    200.00   2000.00  870.50      1
-7.90050323E+00 3.66117678E-01-2.45151098E-04 7.89126702E-08-8.94975623E-12    2
-6.12537332E+04 1.08772132E+02 3.24684536E+01-3.87800076E-02 1.66332659E-03    3
-3.41698681E-06 2.24690105E-09-8.62967656E+04-8.98636114E+01                   4 