ELEMENTS
C H O N
END

SPECIES
H2O NC7H16
H2O* H2O** NC7H16*
N2
END

REACTIONS

END
