THERMO 
   300.0   1000.0   3000.0
   
! LIQUID SPECIES
H2O(L)                  C   0H   2O   1     L 300.0    4000.0    1000.0        1
 9.04470000E+00 1.60000000E-03-6.00000000E-06 6.00000000E-09-2.00000000E-12    2
-3.70865499E+04-2.88280137E+02 9.04470000E+00 1.60000000E-03-6.00000000E-06    3
 6.00000000E-09-2.00000000E-12-3.70865499E+04-2.88280137E+02                   4
H2O*(L)                 C   0H   2O   1     L 300.0    4000.0    1000.0        1
 9.04470000E+00 1.60000000E-03-6.00000000E-06 6.00000000E-09-2.00000000E-12    2
-3.70865499E+04-2.88280137E+02 9.04470000E+00 1.60000000E-03-6.00000000E-06    3
 6.00000000E-09-2.00000000E-12-3.70865499E+04-2.88280137E+02                   4 
H2O**(L)                C   0H   2O   1     L 300.0    4000.0    1000.0        1
 9.04470000E+00 1.60000000E-03-6.00000000E-06 6.00000000E-09-2.00000000E-12    2
-3.70865499E+04-2.88280137E+02 9.04470000E+00 1.60000000E-03-6.00000000E-06    3
 6.00000000E-09-2.00000000E-12-3.70865499E+04-2.88280137E+02                   4
NC7H16(L)               C   7H  16          L    300.00   3500.00 1800.00      1
 3.10696120e+01 1.73458864e-02-4.57663884e-07-1.06280964e-09 1.59098857e-13    2
-3.76541592e+04-1.40920497e+02-2.76912812e+00 9.25430866e-02-6.31219974e-05    3
 2.21462028e-08-3.06437509e-12-2.54722127e+04 4.22218230e+01                   4
NC7H16*(L)              C   7H  16          L    300.00   3500.00 1800.00      1
 3.10696120e+01 1.73458864e-02-4.57663884e-07-1.06280964e-09 1.59098857e-13    2
-3.76541592e+04-1.40920497e+02-2.76912812e+00 9.25430866e-02-6.31219974e-05    3
 2.21462028e-08-3.06437509e-12-2.54722127e+04 4.22218230e+01                   4
 
! GASEOUS SPECIES
H2O               ATcT3EH   2O   1    0    0G    200.00   6000.00 1000.00      1
 2.73117512E+00 2.95136995E-03-8.35359785E-07 1.26088593E-10-8.40531676E-15    2
-2.99169082E+04 6.55183000E+00 4.20147551E+00-2.05583546E-03 6.56547207E-06    3
-5.52906960E-09 1.78282605E-12-3.02950066E+04-8.60610906E-01-2.90858262E+04    4
H2O*              ATcT3EH   2O   1    0    0G    200.00   6000.00 1000.00      1
 2.73117512E+00 2.95136995E-03-8.35359785E-07 1.26088593E-10-8.40531676E-15    2
-2.99169082E+04 6.55183000E+00 4.20147551E+00-2.05583546E-03 6.56547207E-06    3
-5.52906960E-09 1.78282605E-12-3.02950066E+04-8.60610906E-01-2.90858262E+04    4
H2O**             ATcT3EH   2O   1    0    0G    200.00   6000.00 1000.00      1
 2.73117512E+00 2.95136995E-03-8.35359785E-07 1.26088593E-10-8.40531676E-15    2
-2.99169082E+04 6.55183000E+00 4.20147551E+00-2.05583546E-03 6.56547207E-06    3
-5.52906960E-09 1.78282605E-12-3.02950066E+04-8.60610906E-01-2.90858262E+04    4
NC7H16                  C   7H  16          G    300.00   3500.00 1800.00      1
 3.10696120e+01 1.73458864e-02-4.57663884e-07-1.06280964e-09 1.59098857e-13    2
-3.76541592e+04-1.40920497e+02-2.76912812e+00 9.25430866e-02-6.31219974e-05    3
 2.21462028e-08-3.06437509e-12-2.54722127e+04 4.22218230e+01                   4
NC7H16*                 C   7H  16          G    300.00   3500.00 1800.00      1
 3.10696120e+01 1.73458864e-02-4.57663884e-07-1.06280964e-09 1.59098857e-13    2
-3.76541592e+04-1.40920497e+02-2.76912812e+00 9.25430866e-02-6.31219974e-05    3
 2.21462028e-08-3.06437509e-12-2.54722127e+04 4.22218230e+01                   4
N2                G 8/02N   2    0    0    0G   200.000  6000.00  1000.00      1
 2.95257637E+00 1.39690040E-03-4.92631603E-07 7.86010195E-11-4.60755204E-15    2
-9.23948688E+02 5.87188762E+00 3.53100528E+00-1.23660988E-04-5.02999433E-07    3
 2.43530612E-09-1.40881235E-12-1.04697628E+03 2.96747038E+00 0.00000000E+00    4
 
END
	
			     		  



