ELEMENTS
C H O N CL
END

SPECIES

PC2H3CL		PC2CL2		PC2HCL		PC2H2
PC2H2CL2 	PC2H4		PC10H9CL	PC10H10
PC18H15CL	PC18H16		PC47H35CL	PC47H36

RCH			RC2CL		RC2H		RC2H2CL
RC2H3		RC10H8CL	RC10H9		RC18H14CL      
RC18H15		RC47H34CL	RC47H35		RC53H34CL
RC53H35

H 			CL

H2 			CL2 		HCL 		C2H2
C2H4 		C6H6		
C8H8		C24H12		C12H10		C14H10
C24H11CL	C6H5CL		C11H9CL		C15H11CL
GASC 

N2

END

REACTIONS

END
