THERMO 
   300.0   1000.0   3000.0
   
! LIQUID SPECIES
CL2(L)                  CL  2               G    300.00   5000.00 1000.00      1
 .299142300E+01 .700064410E-03-.563382800E-07-.923157820E-11 .158275200E-14    2
-.835033800E+03-.135511000E+01 .329812400E+01 .824944120E-03-.814301470E-06    3
-.947543430E-10 .413487200E-12-.101252100E+04-.329409400E+01                   4
HCL(L)                  H   1CL  1          G    300.00   5000.00 1000.00      1
 .299142300E+01 .700064410E-03-.563382800E-07-.923157820E-11 .158275200E-14    2
-.835033800E+03-.135511000E+01 .329812400E+01 .824944120E-03-.814301470E-06    3
-.947543430E-10 .413487200E-12-.101252100E+04-.329409400E+01                   4
H2(L)                   H   2               G    300.00   5000.00 1000.00      1
 .299142300E+01 .700064410E-03-.563382800E-07-.923157820E-11 .158275200E-14    2
-.835033800E+03-.135511000E+01 .329812400E+01 .824944120E-03-.814301470E-06    3
-.947543430E-10 .413487200E-12-.101252100E+04-.329409400E+01                   4
PC2CL2(L)               C   2CL  2          G    300.00   5000.00 1000.00      1
 .299142300E+01 .700064410E-03-.563382800E-07-.923157820E-11 .158275200E-14    2
-.835033800E+03-.135511000E+01 .329812400E+01 .824944120E-03-.814301470E-06    3
-.947543430E-10 .413487200E-12-.101252100E+04-.329409400E+01                   4
PC2HCL(L)               C   2H   1CL  1     G    300.00   5000.00 1000.00      1
 .299142300E+01 .700064410E-03-.563382800E-07-.923157820E-11 .158275200E-14    2
-.835033800E+03-.135511000E+01 .329812400E+01 .824944120E-03-.814301470E-06    3
-.947543430E-10 .413487200E-12-.101252100E+04-.329409400E+01                   4
PC2H2(L)                C   2H   2          G    300.00   5000.00 1000.00      1
 .299142300E+01 .700064410E-03-.563382800E-07-.923157820E-11 .158275200E-14    2
-.835033800E+03-.135511000E+01 .329812400E+01 .824944120E-03-.814301470E-06    3
-.947543430E-10 .413487200E-12-.101252100E+04-.329409400E+01                   4
C2H2(L)                 C   2H   2          G    300.00   5000.00 1000.00      1
 .299142300E+01 .700064410E-03-.563382800E-07-.923157820E-11 .158275200E-14    2
-.835033800E+03-.135511000E+01 .329812400E+01 .824944120E-03-.814301470E-06    3
-.947543430E-10 .413487200E-12-.101252100E+04-.329409400E+01                   4
GASC(L)                 C   2H   2CL  2     G    300.00   5000.00 1000.00      1
 .299142300E+01 .700064410E-03-.563382800E-07-.923157820E-11 .158275200E-14    2
-.835033800E+03-.135511000E+01 .329812400E+01 .824944120E-03-.814301470E-06    3
-.947543430E-10 .413487200E-12-.101252100E+04-.329409400E+01                   4
PC2H2CL2(L)             C   2H   2CL  2     G    300.00   5000.00 1000.00      1
 .299142300E+01 .700064410E-03-.563382800E-07-.923157820E-11 .158275200E-14    2
-.835033800E+03-.135511000E+01 .329812400E+01 .824944120E-03-.814301470E-06    3
-.947543430E-10 .413487200E-12-.101252100E+04-.329409400E+01                   4
PC2H3CL(L)              C   2H   3CL  1     G    300.00   5000.00 1000.00      1
 .299142300E+01 .700064410E-03-.563382800E-07-.923157820E-11 .158275200E-14    2
-.835033800E+03-.135511000E+01 .329812400E+01 .824944120E-03-.814301470E-06    3
-.947543430E-10 .413487200E-12-.101252100E+04-.329409400E+01                   4
C2H4(L)                 C   2H   4          G    300.00   5000.00 1000.00      1
 .299142300E+01 .700064410E-03-.563382800E-07-.923157820E-11 .158275200E-14    2
-.835033800E+03-.135511000E+01 .329812400E+01 .824944120E-03-.814301470E-06    3
-.947543430E-10 .413487200E-12-.101252100E+04-.329409400E+01                   4
PC2H4(L)                C   2H   4          G    300.00   5000.00 1000.00      1
 .299142300E+01 .700064410E-03-.563382800E-07-.923157820E-11 .158275200E-14    2
-.835033800E+03-.135511000E+01 .329812400E+01 .824944120E-03-.814301470E-06    3
-.947543430E-10 .413487200E-12-.101252100E+04-.329409400E+01                   4
C6H5CL(L)               C   6H   5CL  1     G    300.00   5000.00 1000.00      1
 .299142300E+01 .700064410E-03-.563382800E-07-.923157820E-11 .158275200E-14    2
-.835033800E+03-.135511000E+01 .329812400E+01 .824944120E-03-.814301470E-06    3
-.947543430E-10 .413487200E-12-.101252100E+04-.329409400E+01                   4
C6H6(L)                 C   6H   6          G    300.00   5000.00 1000.00      1
 .299142300E+01 .700064410E-03-.563382800E-07-.923157820E-11 .158275200E-14    2
-.835033800E+03-.135511000E+01 .329812400E+01 .824944120E-03-.814301470E-06    3
-.947543430E-10 .413487200E-12-.101252100E+04-.329409400E+01                   4
C8H8(L)                 C   8H   8          G    300.00   5000.00 1000.00      1
 .299142300E+01 .700064410E-03-.563382800E-07-.923157820E-11 .158275200E-14    2
-.835033800E+03-.135511000E+01 .329812400E+01 .824944120E-03-.814301470E-06    3
-.947543430E-10 .413487200E-12-.101252100E+04-.329409400E+01                   4
PC10H9CL(L)             C  10H   9CL  1     G    300.00   5000.00 1000.00      1
 .299142300E+01 .700064410E-03-.563382800E-07-.923157820E-11 .158275200E-14    2
-.835033800E+03-.135511000E+01 .329812400E+01 .824944120E-03-.814301470E-06    3
-.947543430E-10 .413487200E-12-.101252100E+04-.329409400E+01                   4
PC10H10(L)              C  10H  10          G    300.00   5000.00 1000.00      1
 .299142300E+01 .700064410E-03-.563382800E-07-.923157820E-11 .158275200E-14    2
-.835033800E+03-.135511000E+01 .329812400E+01 .824944120E-03-.814301470E-06    3
-.947543430E-10 .413487200E-12-.101252100E+04-.329409400E+01                   4
C11H9CL(L)              C  11H   9CL  1     G    300.00   5000.00 1000.00      1
 .299142300E+01 .700064410E-03-.563382800E-07-.923157820E-11 .158275200E-14    2
-.835033800E+03-.135511000E+01 .329812400E+01 .824944120E-03-.814301470E-06    3
-.947543430E-10 .413487200E-12-.101252100E+04-.329409400E+01                   4
C12H10(L)               C  12H  10          G    300.00   5000.00 1000.00      1
 .299142300E+01 .700064410E-03-.563382800E-07-.923157820E-11 .158275200E-14    2
-.835033800E+03-.135511000E+01 .329812400E+01 .824944120E-03-.814301470E-06    3
-.947543430E-10 .413487200E-12-.101252100E+04-.329409400E+01                   4
C14H10(L)               C  14H  10          G    300.00   5000.00 1000.00      1
 .299142300E+01 .700064410E-03-.563382800E-07-.923157820E-11 .158275200E-14    2
-.835033800E+03-.135511000E+01 .329812400E+01 .824944120E-03-.814301470E-06    3
-.947543430E-10 .413487200E-12-.101252100E+04-.329409400E+01                   4
C15H11CL(L)             C  15H  11CL  1     G    300.00   5000.00 1000.00      1
 .299142300E+01 .700064410E-03-.563382800E-07-.923157820E-11 .158275200E-14    2
-.835033800E+03-.135511000E+01 .329812400E+01 .824944120E-03-.814301470E-06    3
-.947543430E-10 .413487200E-12-.101252100E+04-.329409400E+01                   4
PC18H15CL(L)            C  18H  15CL  1     G    300.00   5000.00 1000.00      1
 .299142300E+01 .700064410E-03-.563382800E-07-.923157820E-11 .158275200E-14    2
-.835033800E+03-.135511000E+01 .329812400E+01 .824944120E-03-.814301470E-06    3
-.947543430E-10 .413487200E-12-.101252100E+04-.329409400E+01                   4
PC18H16(L)              C  18H  16          G    300.00   5000.00 1000.00      1
 .299142300E+01 .700064410E-03-.563382800E-07-.923157820E-11 .158275200E-14    2
-.835033800E+03-.135511000E+01 .329812400E+01 .824944120E-03-.814301470E-06    3
-.947543430E-10 .413487200E-12-.101252100E+04-.329409400E+01                   4
C24H11CL(L)             C  24H  11CL  1     G    300.00   5000.00 1000.00      1
 .299142300E+01 .700064410E-03-.563382800E-07-.923157820E-11 .158275200E-14    2
-.835033800E+03-.135511000E+01 .329812400E+01 .824944120E-03-.814301470E-06    3
-.947543430E-10 .413487200E-12-.101252100E+04-.329409400E+01                   4
C24H12(L)               C  24H  12          G    300.00   5000.00 1000.00      1
 .299142300E+01 .700064410E-03-.563382800E-07-.923157820E-11 .158275200E-14    2
-.835033800E+03-.135511000E+01 .329812400E+01 .824944120E-03-.814301470E-06    3
-.947543430E-10 .413487200E-12-.101252100E+04-.329409400E+01                   4
PC47H35CL(L)            C  47H  35CL  1     G    300.00   5000.00 1000.00      1
 .299142300E+01 .700064410E-03-.563382800E-07-.923157820E-11 .158275200E-14    2
-.835033800E+03-.135511000E+01 .329812400E+01 .824944120E-03-.814301470E-06    3
-.947543430E-10 .413487200E-12-.101252100E+04-.329409400E+01                   4
PC47H36(L)              C  47H  36          G    300.00   5000.00 1000.00      1
 .299142300E+01 .700064410E-03-.563382800E-07-.923157820E-11 .158275200E-14    2
-.835033800E+03-.135511000E+01 .329812400E+01 .824944120E-03-.814301470E-06    3
-.947543430E-10 .413487200E-12-.101252100E+04-.329409400E+01                   4
CL(L)                   CL  1               G    300.00   5000.00 1000.00      1
 .299142300E+01 .700064410E-03-.563382800E-07-.923157820E-11 .158275200E-14    2
-.835033800E+03-.135511000E+01 .329812400E+01 .824944120E-03-.814301470E-06    3
-.947543430E-10 .413487200E-12-.101252100E+04-.329409400E+01                   4
H(L)                    H   1               G    300.00   5000.00 1000.00      1
 .299142300E+01 .700064410E-03-.563382800E-07-.923157820E-11 .158275200E-14    2
-.835033800E+03-.135511000E+01 .329812400E+01 .824944120E-03-.814301470E-06    3
-.947543430E-10 .413487200E-12-.101252100E+04-.329409400E+01                   4
RCH(L)                  C   1H   1          G    300.00   5000.00 1000.00      1
 .299142300E+01 .700064410E-03-.563382800E-07-.923157820E-11 .158275200E-14    2
-.835033800E+03-.135511000E+01 .329812400E+01 .824944120E-03-.814301470E-06    3
-.947543430E-10 .413487200E-12-.101252100E+04-.329409400E+01                   4
RC2CL(L)                C   2CL  1          G    300.00   5000.00 1000.00      1
 .299142300E+01 .700064410E-03-.563382800E-07-.923157820E-11 .158275200E-14    2
-.835033800E+03-.135511000E+01 .329812400E+01 .824944120E-03-.814301470E-06    3
-.947543430E-10 .413487200E-12-.101252100E+04-.329409400E+01                   4
RC2H(L)                 C   2H   1          G    300.00   5000.00 1000.00      1
 .299142300E+01 .700064410E-03-.563382800E-07-.923157820E-11 .158275200E-14    2
-.835033800E+03-.135511000E+01 .329812400E+01 .824944120E-03-.814301470E-06    3
-.947543430E-10 .413487200E-12-.101252100E+04-.329409400E+01                   4
RC2H2CL(L)              C   2H   2CL  1     G    300.00   5000.00 1000.00      1
 .299142300E+01 .700064410E-03-.563382800E-07-.923157820E-11 .158275200E-14    2
-.835033800E+03-.135511000E+01 .329812400E+01 .824944120E-03-.814301470E-06    3
-.947543430E-10 .413487200E-12-.101252100E+04-.329409400E+01                   4
RC2H3(L)                C   2H   3          G    300.00   5000.00 1000.00      1
 .299142300E+01 .700064410E-03-.563382800E-07-.923157820E-11 .158275200E-14    2
-.835033800E+03-.135511000E+01 .329812400E+01 .824944120E-03-.814301470E-06    3
-.947543430E-10 .413487200E-12-.101252100E+04-.329409400E+01                   4
RC10H8CL(L)             C  10H   8CL  1     G    300.00   5000.00 1000.00      1
 .299142300E+01 .700064410E-03-.563382800E-07-.923157820E-11 .158275200E-14    2
-.835033800E+03-.135511000E+01 .329812400E+01 .824944120E-03-.814301470E-06    3
-.947543430E-10 .413487200E-12-.101252100E+04-.329409400E+01                   4
RC10H9(L)               C  10H   9          G    300.00   5000.00 1000.00      1
 .299142300E+01 .700064410E-03-.563382800E-07-.923157820E-11 .158275200E-14    2
-.835033800E+03-.135511000E+01 .329812400E+01 .824944120E-03-.814301470E-06    3
-.947543430E-10 .413487200E-12-.101252100E+04-.329409400E+01                   4
RC18H14CL(L)            C  18H  14CL  1     G    300.00   5000.00 1000.00      1
 .299142300E+01 .700064410E-03-.563382800E-07-.923157820E-11 .158275200E-14    2
-.835033800E+03-.135511000E+01 .329812400E+01 .824944120E-03-.814301470E-06    3
-.947543430E-10 .413487200E-12-.101252100E+04-.329409400E+01                   4
RC18H15(L)              C  18H  15          G    300.00   5000.00 1000.00      1
 .299142300E+01 .700064410E-03-.563382800E-07-.923157820E-11 .158275200E-14    2
-.835033800E+03-.135511000E+01 .329812400E+01 .824944120E-03-.814301470E-06    3
-.947543430E-10 .413487200E-12-.101252100E+04-.329409400E+01                   4
RC47H34CL(L)            C  47H  34CL  1     G    300.00   5000.00 1000.00      1
 .299142300E+01 .700064410E-03-.563382800E-07-.923157820E-11 .158275200E-14    2
-.835033800E+03-.135511000E+01 .329812400E+01 .824944120E-03-.814301470E-06    3
-.947543430E-10 .413487200E-12-.101252100E+04-.329409400E+01                   4
RC47H35(L)              C  47H  35          G    300.00   5000.00 1000.00      1
 .299142300E+01 .700064410E-03-.563382800E-07-.923157820E-11 .158275200E-14    2
-.835033800E+03-.135511000E+01 .329812400E+01 .824944120E-03-.814301470E-06    3
-.947543430E-10 .413487200E-12-.101252100E+04-.329409400E+01                   4
RC53H34CL(L)            C  53H  34CL  1     G    300.00   5000.00 1000.00      1
 .299142300E+01 .700064410E-03-.563382800E-07-.923157820E-11 .158275200E-14    2
-.835033800E+03-.135511000E+01 .329812400E+01 .824944120E-03-.814301470E-06    3
-.947543430E-10 .413487200E-12-.101252100E+04-.329409400E+01                   4
RC53H35(L)              C  53H  35          G    300.00   5000.00 1000.00      1
 .299142300E+01 .700064410E-03-.563382800E-07-.923157820E-11 .158275200E-14    2
-.835033800E+03-.135511000E+01 .329812400E+01 .824944120E-03-.814301470E-06    3
-.947543430E-10 .413487200E-12-.101252100E+04-.329409400E+01                   4
 
! GASEOUS SPECIES
CL2                     CL  2               G    300.00   5000.00 1000.00      1
 .299142300E+01 .700064410E-03-.563382800E-07-.923157820E-11 .158275200E-14    2
-.835033800E+03-.135511000E+01 .329812400E+01 .824944120E-03-.814301470E-06    3
-.947543430E-10 .413487200E-12-.101252100E+04-.329409400E+01                   4
HCL                     H   1CL  1          G    300.00   5000.00 1000.00      1
 .299142300E+01 .700064410E-03-.563382800E-07-.923157820E-11 .158275200E-14    2
-.835033800E+03-.135511000E+01 .329812400E+01 .824944120E-03-.814301470E-06    3
-.947543430E-10 .413487200E-12-.101252100E+04-.329409400E+01                   4
H2                      H   2               G    300.00   5000.00 1000.00      1
 .299142300E+01 .700064410E-03-.563382800E-07-.923157820E-11 .158275200E-14    2
-.835033800E+03-.135511000E+01 .329812400E+01 .824944120E-03-.814301470E-06    3
-.947543430E-10 .413487200E-12-.101252100E+04-.329409400E+01                   4
PC2CL2                  C   2CL  2          G    300.00   5000.00 1000.00      1
 .299142300E+01 .700064410E-03-.563382800E-07-.923157820E-11 .158275200E-14    2
-.835033800E+03-.135511000E+01 .329812400E+01 .824944120E-03-.814301470E-06    3
-.947543430E-10 .413487200E-12-.101252100E+04-.329409400E+01                   4
PC2HCL                  C   2H   1CL  1     G    300.00   5000.00 1000.00      1
 .299142300E+01 .700064410E-03-.563382800E-07-.923157820E-11 .158275200E-14    2
-.835033800E+03-.135511000E+01 .329812400E+01 .824944120E-03-.814301470E-06    3
-.947543430E-10 .413487200E-12-.101252100E+04-.329409400E+01                   4
PC2H2                   C   2H   2          G    300.00   5000.00 1000.00      1
 .299142300E+01 .700064410E-03-.563382800E-07-.923157820E-11 .158275200E-14    2
-.835033800E+03-.135511000E+01 .329812400E+01 .824944120E-03-.814301470E-06    3
-.947543430E-10 .413487200E-12-.101252100E+04-.329409400E+01                   4
C2H2                    C   2H   2          G    300.00   5000.00 1000.00      1
 .299142300E+01 .700064410E-03-.563382800E-07-.923157820E-11 .158275200E-14    2
-.835033800E+03-.135511000E+01 .329812400E+01 .824944120E-03-.814301470E-06    3
-.947543430E-10 .413487200E-12-.101252100E+04-.329409400E+01                   4
GASC                    C   2H   2CL  2     G    300.00   5000.00 1000.00      1
 .299142300E+01 .700064410E-03-.563382800E-07-.923157820E-11 .158275200E-14    2
-.835033800E+03-.135511000E+01 .329812400E+01 .824944120E-03-.814301470E-06    3
-.947543430E-10 .413487200E-12-.101252100E+04-.329409400E+01                   4
PC2H2CL2                C   2H   2CL  2     G    300.00   5000.00 1000.00      1
 .299142300E+01 .700064410E-03-.563382800E-07-.923157820E-11 .158275200E-14    2
-.835033800E+03-.135511000E+01 .329812400E+01 .824944120E-03-.814301470E-06    3
-.947543430E-10 .413487200E-12-.101252100E+04-.329409400E+01                   4
PC2H3CL                 C   2H   3CL  1     G    300.00   5000.00 1000.00      1
 .299142300E+01 .700064410E-03-.563382800E-07-.923157820E-11 .158275200E-14    2
-.835033800E+03-.135511000E+01 .329812400E+01 .824944120E-03-.814301470E-06    3
-.947543430E-10 .413487200E-12-.101252100E+04-.329409400E+01                   4
C2H4                    C   2H   4          G    300.00   5000.00 1000.00      1
 .299142300E+01 .700064410E-03-.563382800E-07-.923157820E-11 .158275200E-14    2
-.835033800E+03-.135511000E+01 .329812400E+01 .824944120E-03-.814301470E-06    3
-.947543430E-10 .413487200E-12-.101252100E+04-.329409400E+01                   4
PC2H4                   C   2H   4          G    300.00   5000.00 1000.00      1
 .299142300E+01 .700064410E-03-.563382800E-07-.923157820E-11 .158275200E-14    2
-.835033800E+03-.135511000E+01 .329812400E+01 .824944120E-03-.814301470E-06    3
-.947543430E-10 .413487200E-12-.101252100E+04-.329409400E+01                   4
C6H5CL                  C   6H   5CL  1     G    300.00   5000.00 1000.00      1
 .299142300E+01 .700064410E-03-.563382800E-07-.923157820E-11 .158275200E-14    2
-.835033800E+03-.135511000E+01 .329812400E+01 .824944120E-03-.814301470E-06    3
-.947543430E-10 .413487200E-12-.101252100E+04-.329409400E+01                   4
C6H6                    C   6H   6          G    300.00   5000.00 1000.00      1
 .299142300E+01 .700064410E-03-.563382800E-07-.923157820E-11 .158275200E-14    2
-.835033800E+03-.135511000E+01 .329812400E+01 .824944120E-03-.814301470E-06    3
-.947543430E-10 .413487200E-12-.101252100E+04-.329409400E+01                   4
C8H8                    C   8H   8          G    300.00   5000.00 1000.00      1
 .299142300E+01 .700064410E-03-.563382800E-07-.923157820E-11 .158275200E-14    2
-.835033800E+03-.135511000E+01 .329812400E+01 .824944120E-03-.814301470E-06    3
-.947543430E-10 .413487200E-12-.101252100E+04-.329409400E+01                   4
PC10H9CL                C  10H   9CL  1     G    300.00   5000.00 1000.00      1
 .299142300E+01 .700064410E-03-.563382800E-07-.923157820E-11 .158275200E-14    2
-.835033800E+03-.135511000E+01 .329812400E+01 .824944120E-03-.814301470E-06    3
-.947543430E-10 .413487200E-12-.101252100E+04-.329409400E+01                   4
PC10H10                 C  10H  10          G    300.00   5000.00 1000.00      1
 .299142300E+01 .700064410E-03-.563382800E-07-.923157820E-11 .158275200E-14    2
-.835033800E+03-.135511000E+01 .329812400E+01 .824944120E-03-.814301470E-06    3
-.947543430E-10 .413487200E-12-.101252100E+04-.329409400E+01                   4
C11H9CL                 C  11H   9CL  1     G    300.00   5000.00 1000.00      1
 .299142300E+01 .700064410E-03-.563382800E-07-.923157820E-11 .158275200E-14    2
-.835033800E+03-.135511000E+01 .329812400E+01 .824944120E-03-.814301470E-06    3
-.947543430E-10 .413487200E-12-.101252100E+04-.329409400E+01                   4
C12H10                  C  12H  10          G    300.00   5000.00 1000.00      1
 .299142300E+01 .700064410E-03-.563382800E-07-.923157820E-11 .158275200E-14    2
-.835033800E+03-.135511000E+01 .329812400E+01 .824944120E-03-.814301470E-06    3
-.947543430E-10 .413487200E-12-.101252100E+04-.329409400E+01                   4
C14H10                  C  14H  10          G    300.00   5000.00 1000.00      1
 .299142300E+01 .700064410E-03-.563382800E-07-.923157820E-11 .158275200E-14    2
-.835033800E+03-.135511000E+01 .329812400E+01 .824944120E-03-.814301470E-06    3
-.947543430E-10 .413487200E-12-.101252100E+04-.329409400E+01                   4
C15H11CL                C  15H  11CL  1     G    300.00   5000.00 1000.00      1
 .299142300E+01 .700064410E-03-.563382800E-07-.923157820E-11 .158275200E-14    2
-.835033800E+03-.135511000E+01 .329812400E+01 .824944120E-03-.814301470E-06    3
-.947543430E-10 .413487200E-12-.101252100E+04-.329409400E+01                   4
PC18H15CL               C  18H  15CL  1     G    300.00   5000.00 1000.00      1
 .299142300E+01 .700064410E-03-.563382800E-07-.923157820E-11 .158275200E-14    2
-.835033800E+03-.135511000E+01 .329812400E+01 .824944120E-03-.814301470E-06    3
-.947543430E-10 .413487200E-12-.101252100E+04-.329409400E+01                   4
PC18H16                 C  18H  16          G    300.00   5000.00 1000.00      1
 .299142300E+01 .700064410E-03-.563382800E-07-.923157820E-11 .158275200E-14    2
-.835033800E+03-.135511000E+01 .329812400E+01 .824944120E-03-.814301470E-06    3
-.947543430E-10 .413487200E-12-.101252100E+04-.329409400E+01                   4
C24H11CL                C  24H  11CL  1     G    300.00   5000.00 1000.00      1
 .299142300E+01 .700064410E-03-.563382800E-07-.923157820E-11 .158275200E-14    2
-.835033800E+03-.135511000E+01 .329812400E+01 .824944120E-03-.814301470E-06    3
-.947543430E-10 .413487200E-12-.101252100E+04-.329409400E+01                   4
C24H12                  C  24H  12          G    300.00   5000.00 1000.00      1
 .299142300E+01 .700064410E-03-.563382800E-07-.923157820E-11 .158275200E-14    2
-.835033800E+03-.135511000E+01 .329812400E+01 .824944120E-03-.814301470E-06    3
-.947543430E-10 .413487200E-12-.101252100E+04-.329409400E+01                   4
PC47H35CL               C  47H  35CL  1     G    300.00   5000.00 1000.00      1
 .299142300E+01 .700064410E-03-.563382800E-07-.923157820E-11 .158275200E-14    2
-.835033800E+03-.135511000E+01 .329812400E+01 .824944120E-03-.814301470E-06    3
-.947543430E-10 .413487200E-12-.101252100E+04-.329409400E+01                   4
PC47H36                 C  47H  36          G    300.00   5000.00 1000.00      1
 .299142300E+01 .700064410E-03-.563382800E-07-.923157820E-11 .158275200E-14    2
-.835033800E+03-.135511000E+01 .329812400E+01 .824944120E-03-.814301470E-06    3
-.947543430E-10 .413487200E-12-.101252100E+04-.329409400E+01                   4
CL                      CL  1               G    300.00   5000.00 1000.00      1
 .299142300E+01 .700064410E-03-.563382800E-07-.923157820E-11 .158275200E-14    2
-.835033800E+03-.135511000E+01 .329812400E+01 .824944120E-03-.814301470E-06    3
-.947543430E-10 .413487200E-12-.101252100E+04-.329409400E+01                   4
H                       H   1               G    300.00   5000.00 1000.00      1
 .299142300E+01 .700064410E-03-.563382800E-07-.923157820E-11 .158275200E-14    2
-.835033800E+03-.135511000E+01 .329812400E+01 .824944120E-03-.814301470E-06    3
-.947543430E-10 .413487200E-12-.101252100E+04-.329409400E+01                   4
RCH                     C   1H   1          G    300.00   5000.00 1000.00      1
 .299142300E+01 .700064410E-03-.563382800E-07-.923157820E-11 .158275200E-14    2
-.835033800E+03-.135511000E+01 .329812400E+01 .824944120E-03-.814301470E-06    3
-.947543430E-10 .413487200E-12-.101252100E+04-.329409400E+01                   4
RC2CL                   C   2CL  1          G    300.00   5000.00 1000.00      1
 .299142300E+01 .700064410E-03-.563382800E-07-.923157820E-11 .158275200E-14    2
-.835033800E+03-.135511000E+01 .329812400E+01 .824944120E-03-.814301470E-06    3
-.947543430E-10 .413487200E-12-.101252100E+04-.329409400E+01                   4
RC2H                    C   2H   1          G    300.00   5000.00 1000.00      1
 .299142300E+01 .700064410E-03-.563382800E-07-.923157820E-11 .158275200E-14    2
-.835033800E+03-.135511000E+01 .329812400E+01 .824944120E-03-.814301470E-06    3
-.947543430E-10 .413487200E-12-.101252100E+04-.329409400E+01                   4
RC2H2CL                 C   2H   2CL  1     G    300.00   5000.00 1000.00      1
 .299142300E+01 .700064410E-03-.563382800E-07-.923157820E-11 .158275200E-14    2
-.835033800E+03-.135511000E+01 .329812400E+01 .824944120E-03-.814301470E-06    3
-.947543430E-10 .413487200E-12-.101252100E+04-.329409400E+01                   4
RC2H3                   C   2H   3          G    300.00   5000.00 1000.00      1
 .299142300E+01 .700064410E-03-.563382800E-07-.923157820E-11 .158275200E-14    2
-.835033800E+03-.135511000E+01 .329812400E+01 .824944120E-03-.814301470E-06    3
-.947543430E-10 .413487200E-12-.101252100E+04-.329409400E+01                   4
RC10H8CL                C  10H   8CL  1     G    300.00   5000.00 1000.00      1
 .299142300E+01 .700064410E-03-.563382800E-07-.923157820E-11 .158275200E-14    2
-.835033800E+03-.135511000E+01 .329812400E+01 .824944120E-03-.814301470E-06    3
-.947543430E-10 .413487200E-12-.101252100E+04-.329409400E+01                   4
RC10H9                  C  10H   9          G    300.00   5000.00 1000.00      1
 .299142300E+01 .700064410E-03-.563382800E-07-.923157820E-11 .158275200E-14    2
-.835033800E+03-.135511000E+01 .329812400E+01 .824944120E-03-.814301470E-06    3
-.947543430E-10 .413487200E-12-.101252100E+04-.329409400E+01                   4
RC18H14CL               C  18H  14CL  1     G    300.00   5000.00 1000.00      1
 .299142300E+01 .700064410E-03-.563382800E-07-.923157820E-11 .158275200E-14    2
-.835033800E+03-.135511000E+01 .329812400E+01 .824944120E-03-.814301470E-06    3
-.947543430E-10 .413487200E-12-.101252100E+04-.329409400E+01                   4
RC18H15                 C  18H  15          G    300.00   5000.00 1000.00      1
 .299142300E+01 .700064410E-03-.563382800E-07-.923157820E-11 .158275200E-14    2
-.835033800E+03-.135511000E+01 .329812400E+01 .824944120E-03-.814301470E-06    3
-.947543430E-10 .413487200E-12-.101252100E+04-.329409400E+01                   4
RC47H34CL               C  47H  34CL  1     G    300.00   5000.00 1000.00      1
 .299142300E+01 .700064410E-03-.563382800E-07-.923157820E-11 .158275200E-14    2
-.835033800E+03-.135511000E+01 .329812400E+01 .824944120E-03-.814301470E-06    3
-.947543430E-10 .413487200E-12-.101252100E+04-.329409400E+01                   4
RC47H35                 C  47H  35          G    300.00   5000.00 1000.00      1
 .299142300E+01 .700064410E-03-.563382800E-07-.923157820E-11 .158275200E-14    2
-.835033800E+03-.135511000E+01 .329812400E+01 .824944120E-03-.814301470E-06    3
-.947543430E-10 .413487200E-12-.101252100E+04-.329409400E+01                   4
RC53H34CL               C  53H  34CL  1     G    300.00   5000.00 1000.00      1
 .299142300E+01 .700064410E-03-.563382800E-07-.923157820E-11 .158275200E-14    2
-.835033800E+03-.135511000E+01 .329812400E+01 .824944120E-03-.814301470E-06    3
-.947543430E-10 .413487200E-12-.101252100E+04-.329409400E+01                   4
RC53H35                 C  53H  35          G    300.00   5000.00 1000.00      1
 .299142300E+01 .700064410E-03-.563382800E-07-.923157820E-11 .158275200E-14    2
-.835033800E+03-.135511000E+01 .329812400E+01 .824944120E-03-.814301470E-06    3
-.947543430E-10 .413487200E-12-.101252100E+04-.329409400E+01                   4

N2                G 8/02N   2    0    0    0G   200.000  6000.00  1000.00      1
 2.95257637E+00 1.39690040E-03-4.92631603E-07 7.86010195E-11-4.60755204E-15    2
-9.23948688E+02 5.87188762E+00 3.53100528E+00-1.23660988E-04-5.02999433E-07    3
 2.43530612E-09-1.40881235E-12-1.04697628E+03 2.96747038E+00 0.00000000E+00    4
 
END
	
			     		  



