ELEMENTS 
C H O N AR RH
END 

SPECIES 
C16H34 CH4 CO CO2
H2 H2O O2 N2
AR 
END 

REACTIONS
N2=>N2	1 0 0 
END 
