ELEMENTS 
C H O N AR Rh
END 

SPECIES 
CH4 O2 CO CO2 H2 
H2O AR N2
END 

REACTIONS
N2=>N2	1 0 0 
END 
