! A 40-SPECIES SKELETAL MECHANISM FOR ETHANOL/AIR, WITH NO FORMATION
!
! REFERENCES:
!    ZHANG H., HAWKES E.R., KOOK S., LUO Z., LU T.F., 
!    "COMPUTATIONAL INVESTIGATIONS OF THE EFFECTS OF THERMAL STRATIFICATION IN AN ETHANOL-FUELLED HCCI ENGINE," 
!    FUEL, SUBMITTED.
!
!    BHAGATWALA A., CHEN J.H., LU T.F., 
!    “DIRECT NUMERICAL SIMULATIONS OF HCCI/SACI WITH ETHANOL,” 
!    COMBUST. FLAME, 161 (7) 1826-1841, 2014.
!

ELEMENTS
C H N O AR HE
END


SPECIES
H                H2               O                O2               
OH               H2O              HO2              
H2O2             CO               CO2              CH2O             
HCO              HO2CHO           O2CHO            OCHO             
CH2OH            CH3O             CH3O2H           CH3O2            
CH4              CH3              CH2              CH2(S)           
C2H5             C2H4             C2H3             CH3CHO           
CH3CO            CH2CHO           C2H5OH           C2H5O            
PC2H4OH          SC2H4OH          O2C2H4OH         C2H3O1-2         
N                NO               NO2              N2O              
N2
END


REACTIONS
!R1
H+O2<=>O+OH 3.547E+15 -0.41 1.660E+04
!R2
O+H2<=>H+OH 5.080E+04 2.67 6.292E+03
!R3
OH+H2<=>H+H2O 2.160E+08 1.51 3.430E+03
!R4
O+H2O<=>OH+OH 2.970E+06 2.02 1.340E+04
!R5
H2+M<=>H+H+M 4.577E+19 -1.40 1.044E+05
H2/2.5/ H2O/12/ CO/1.9/ CO2/3.8/ 
!R6
O2+M<=>O+O+M 4.420E+17 -0.63 1.189E+05
H2/2.5/ H2O/12/ CO/1.9/ CO2/3.8/ CH4/2/ 
!R7
OH+M<=>O+H+M 9.780E+17 -0.74 1.021E+05
H2/2.5/ H2O/12/ CO/1.5/ CO2/2/ CH4/2/ 
!R8
H2O+M<=>H+OH+M 1.907E+23 -1.83 1.185E+05
H2/.73/ H2O/12/ CH4/2/ 
!R9
H+O2(+M)<=>HO2(+M) 1.475E+12 0.60 0.000E+00
LOW / 3.4820E+16 -4.1100E-01 -1.1150E+03 / 
TROE / 5.0000E-01 1.0000E-30 1.0000E+30 1.0000E+30 / !TROE FALL-OFF REACTION
H2/1.3/ H2O/14/ CO/1.9/ CO2/3.8/ CH4/2/ 
!R10
HO2+H<=>H2+O2 1.660E+13 0.00 8.230E+02
!R11
HO2+H<=>OH+OH 7.079E+13 0.00 2.950E+02
!R12
HO2+O<=>OH+O2 3.250E+13 0.00 0.000E+00
!R13
HO2+OH<=>H2O+O2 2.890E+13 0.00 -4.970E+02
!R14
H2O2+O2<=>HO2+HO2 1.136E+16 -0.35 4.973E+04
DUP
!R15
H2O2+O2<=>HO2+HO2 2.141E+13 -0.35 3.728E+04
DUP
!R16
H2O2(+M)<=>OH+OH(+M) 2.951E+14 0.00 4.843E+04
LOW / 1.2020E+17 0.0000E+00 4.5500E+04 / 
TROE / 5.0000E-01 1.0000E-30 1.0000E+30 1.0000E+30 / !TROE FALL-OFF REACTION
H2/2.5/ H2O/12/ CO/1.9/ CO2/3.8/ CH4/2/ 
!R17
H2O2+H<=>H2O+OH 2.410E+13 0.00 3.970E+03
!R18
H2O2+H<=>H2+HO2 2.150E+10 1.00 6.000E+03
!R19
H2O2+O<=>OH+HO2 9.550E+06 2.00 3.970E+03
!R20
H2O2+OH<=>H2O+HO2 2.000E+12 0.00 4.272E+02
DUP
!R21
H2O2+OH<=>H2O+HO2 1.700E+18 0.00 2.941E+04
DUP
!R22
CO+O(+M)<=>CO2(+M) 1.800E+10 0.00 2.384E+03
LOW / 1.3500E+24 -2.7880E+00 4.1910E+03 / !LINDEMANN FALL-OFF REACTION
H2/2/ O2/6/ H2O/6/ CO/1.5/ CO2/3.5/ CH4/2/ 
!R23
CO+O2<=>CO2+O 1.050E+12 0.00 4.254E+04
!R24
CO+OH<=>CO2+H 1.784E+05 1.89 -1.158E+03
!R25
CO+HO2<=>CO2+OH 3.010E+13 0.00 2.300E+04
!R26
HCO+M<=>H+CO+M 4.750E+11 0.66 1.487E+04
H2/2/ H2O/12/ CO/1.5/ CO2/2/ CH4/2/ 
!R27
HCO+O2<=>CO+HO2 7.580E+12 0.00 4.100E+02
!R28
HCO+H<=>CO+H2 7.340E+13 0.00 0.000E+00
!R29
HCO+O<=>CO+OH 3.020E+13 0.00 0.000E+00
!R30
HCO+O<=>CO2+H 3.000E+13 0.00 0.000E+00
!R31
HCO+OH<=>CO+H2O 1.020E+14 0.00 0.000E+00
!R32
HCO+CH3<=>CH4+CO 2.650E+13 0.00 0.000E+00
!R33
HCO+HO2<=>CH2O+O2 2.499E+14 -0.06 1.392E+04
!R34
HCO+HO2<=>CO2+H+OH 3.000E+13 0.00 0.000E+00
!R35
O2CHO<=>HCO+O2 1.396E+29 -4.55 4.630E+04
!R36
CH2O+O2CHO<=>HCO+HO2CHO 1.990E+12 0.00 1.166E+04
!R37
HO2CHO<=>OCHO+OH 5.010E+14 0.00 4.015E+04
!R38
H+CO2<=>OCHO 7.500E+13 0.00 2.900E+04
!R39
CH2O+CO<=>HCO+HCO 9.186E+13 0.37 7.304E+04
!R40
HCO+HCO<=>H2+CO+CO 3.000E+12 0.00 0.000E+00
!R41
HCO+H(+M)<=>CH2O(+M) 1.090E+12 0.48 -2.600E+02
LOW / 1.3500E+24 -2.5700E+00 1.4250E+03 / 
TROE / 7.8240E-01 2.7100E+02 2.7550E+03 6.5700E+03 / !TROE FALL-OFF REACTION
H2/2/ H2O/6/ CO/1.5/ CO2/2/ CH4/2/ 
!R42
CO+H2(+M)<=>CH2O(+M) 4.300E+07 1.50 7.960E+04
LOW / 5.0700E+27 -3.4200E+00 8.4348E+04 / 
TROE / 9.3200E-01 1.9700E+02 1.5400E+03 1.0300E+04 / !TROE FALL-OFF REACTION
H2/2/ H2O/6/ CO/1.5/ CO2/2/ CH4/2/ 
!R43
CH2O+OH<=>HCO+H2O 7.820E+07 1.63 -1.055E+03
!R44
CH2O+H<=>HCO+H2 5.740E+07 1.90 2.740E+03
!R45
CH2O+O<=>HCO+OH 6.260E+09 1.15 2.260E+03
!R46
CH2O+CH3<=>HCO+CH4 3.830E+01 3.36 4.312E+03
!R47
CH2O+HO2<=>HCO+H2O2 7.100E-03 4.52 6.580E+03
!R63
CH3O(+M)<=>CH2O+H(+M) 6.800E+13 0.00 2.617E+04
LOW / 1.8670E+25 -3.0000E+00 2.4307E+04 / 
TROE / 9.0000E-01 2.5000E+03 1.3000E+03 1.0000E+99 / !TROE FALL-OFF REACTION
H2/2/ H2O/6/ CO/1.5/ CO2/2/ CH4/2/ 
!R64
CH3O+O2<=>CH2O+HO2 4.380E-19 9.50 -5.501E+03
!R67
CH3O+CH3<=>CH2O+CH4 1.200E+13 0.00 0.000E+00
!R68
CH3O+H<=>CH2O+H2 2.000E+13 0.00 0.000E+00
!R69
CH3O+HO2<=>CH2O+H2O2 3.010E+11 0.00 0.000E+00
!R70
CH2O+H(+M)<=>CH2OH(+M) 5.400E+11 0.45 3.600E+03
LOW / 1.2700E+32 -4.8200E+00 6.5300E+03 / 
TROE / 7.1870E-01 1.0300E+02 1.2910E+03 4.1600E+03 / !TROE FALL-OFF REACTION
H2/2/ H2O/6/ CO/1.5/ CO2/2/ CH4/2/ 
!R71
CH2OH+O2<=>CH2O+HO2 1.510E+15 -1.00 0.000E+00
DUP
!R72
CH2OH+O2<=>CH2O+HO2 2.410E+14 0.00 5.017E+03
DUP
!R73
CH2OH+H<=>CH2O+H2 6.000E+12 0.00 0.000E+00
!R74
CH2OH+HO2<=>CH2O+H2O2 1.200E+13 0.00 0.000E+00
!R75
CH2OH+HCO<=>CH2O+CH2O 1.800E+14 0.00 0.000E+00
!R78
OH+CH2OH<=>H2O+CH2O 2.400E+13 0.00 0.000E+00
!R79
O+CH2OH<=>OH+CH2O 4.200E+13 0.00 0.000E+00
!R94
CH3+H(+M)<=>CH4(+M) 1.270E+16 -0.60 3.830E+02
LOW / 1.9816E+33 -4.7600E+00 2.4440E+03 / 
TROE / 7.8300E-01 7.4000E+01 2.9400E+03 6.9600E+03 / !TROE FALL-OFF REACTION
H2/2/ H2O/6/ CO/1.5/ CO2/2/ CH4/2/ 
!R95
CH4+H<=>CH3+H2 6.140E+05 2.50 9.587E+03
!R96
CH4+OH<=>CH3+H2O 5.830E+04 2.60 2.190E+03
!R97
CH4+O<=>CH3+OH 1.020E+09 1.50 8.600E+03
!R98
CH4+HO2<=>CH3+H2O2 1.130E+01 3.74 2.101E+04
!R99
CH4+CH2<=>CH3+CH3 2.460E+06 2.00 8.270E+03
!R100
CH3+OH<=>CH2O+H2 8.000E+09 0.50 -1.755E+03
!R101
CH3+OH<=>CH2(S)+H2O 4.508E+17 -1.34 1.417E+03
!R102
CH3+OH<=>CH3O+H 6.943E+07 1.34 1.120E+04
!R103
CH3+OH<=>CH2OH+H 3.090E+07 1.60 4.506E+03
!R104
CH3+OH<=>CH2+H2O 5.600E+07 1.60 5.420E+03
!R105
CH3+HO2<=>CH3O+OH 1.000E+12 0.27 -6.875E+02
!R106
CH3+HO2<=>CH4+O2 1.160E+05 2.23 -3.022E+03
!R107
CH3+O<=>CH2O+H 5.540E+13 0.05 -1.360E+02
!R108
CH3+O2<=>CH3O+O 7.546E+12 0.00 2.832E+04
!R109
CH3+O2<=>CH2O+OH 2.641E+00 3.28 8.105E+03
!R110
CH3+O2(+M)<=>CH3O2(+M) 7.812E+09 0.90 0.000E+00
LOW / 6.8500E+24 -3.0000E+00 0.0000E+00 / 
TROE / 6.0000E-01 1.0000E+03 7.0000E+01 1.7000E+03 / !TROE FALL-OFF REACTION
!R111
CH3O2+CH2O<=>CH3O2H+HCO 1.990E+12 0.00 1.166E+04
!R112
CH4+CH3O2<=>CH3+CH3O2H 1.810E+11 0.00 1.848E+04
!R114
CH3O2+CH3<=>CH3O+CH3O 5.080E+12 0.00 -1.411E+03
!R115
CH3O2+HO2<=>CH3O2H+O2 2.470E+11 0.00 -1.570E+03
!R117
CH3O2+CH3O2<=>O2+CH3O+CH3O 1.400E+16 -1.61 1.860E+03
!R118
CH3O2+H<=>CH3O+OH 9.600E+13 0.00 0.000E+00
!R119
CH3O2+O<=>CH3O+O2 3.600E+13 0.00 0.000E+00
!R121
CH3O2H<=>CH3O+OH 6.310E+14 0.00 4.230E+04
!R122
CH2(S)<=>CH2 1.000E+13 0.00 0.000E+00
!R123
CH2(S)+CH4<=>CH3+CH3 1.600E+13 0.00 -5.700E+02
!R124
CH2(S)+O2<=>CO+OH+H 7.000E+13 0.00 0.000E+00
!R125
CH2(S)+H2<=>CH3+H 7.000E+13 0.00 0.000E+00
!R126
CH2(S)+H<=>CH2+H 3.000E+13 0.00 0.000E+00
!R128
CH2(S)+O<=>CO+H+H 3.000E+13 0.00 0.000E+00
!R129
CH2(S)+OH<=>CH2O+H 3.000E+13 0.00 0.000E+00
!R130
CH2(S)+CO2<=>CH2O+CO 3.000E+12 0.00 0.000E+00
!R131
CH2+H(+M)<=>CH3(+M) 2.500E+16 -0.80 0.000E+00
LOW / 3.2000E+27 -3.1400E+00 1.2300E+03 / 
TROE / 6.8000E-01 7.8000E+01 1.9950E+03 5.5900E+03 / !TROE FALL-OFF REACTION
H2/2/ H2O/6/ CO/1.5/ CO2/2/ CH4/2/ 
!R132
CH2+O2<=>CH2O+O 2.400E+12 0.00 1.500E+03
!R133
CH2+O2<=>CO2+H+H 5.800E+12 0.00 1.500E+03
!R134
CH2+O2<=>CO+OH+H 5.000E+12 0.00 1.500E+03
!R135
CH2+O<=>CO+H+H 5.000E+13 0.00 0.000E+00
!R159
C2H4+H(+M)<=>C2H5(+M) 1.081E+12 0.45 1.822E+03
LOW / 1.2000E+42 -7.6200E+00 6.9700E+03 / 
TROE / 9.7500E-01 2.1000E+02 9.8400E+02 4.3740E+03 / !TROE FALL-OFF REACTION
H2/2/ H2O/6/ CO/1.5/ CO2/2/ CH4/2/ 
!R160
H2+CH3O2<=>H+CH3O2H 1.500E+14 0.00 2.603E+04
!R162
C2H5+C2H3<=>C2H4+C2H4 6.859E+11 0.11 -4.300E+03
!R163
CH3+C2H5<=>CH4+C2H4 1.180E+04 2.45 -2.921E+03
!R164
C2H5+H<=>CH3+CH3 9.690E+13 0.00 2.200E+02
!R165
C2H5+H<=>C2H4+H2 2.000E+12 0.00 0.000E+00
!R166
C2H5+O<=>CH3CHO+H 1.100E+14 0.00 0.000E+00
!R167
C2H5+HO2<=>C2H5O+OH 1.100E+13 0.00 0.000E+00
!R168
CH3O2+C2H5<=>CH3O+C2H5O 8.000E+12 0.00 -1.000E+03
!R169
C2H5O+O2<=>CH3CHO+HO2 4.280E+10 0.00 1.097E+03
!R170
C2H5O<=>CH3+CH2O 1.321E+20 -2.02 2.075E+04
!R171
C2H5O<=>CH3CHO+H 5.428E+15 -0.69 2.223E+04
!R179
C2H5+O2<=>C2H4+HO2 3.780E+14 -1.01 4.749E+03
DUP
!R180
C2H5+O2<=>C2H4+HO2 4.000E-01 3.88 1.362E+04
DUP
!R182
C2H5+O2<=>CH3CHO+OH 8.265E+02 2.41 5.285E+03
!R195
C2H3O1-2<=>CH3CO 8.500E+14 0.00 1.400E+04
!R196
C2H3O1-2<=>CH2CHO 1.000E+14 0.00 1.400E+04
!R197
CH3CHO<=>CH3+HCO 7.687E+20 -1.34 8.695E+04
!R198
CH3CHO+H<=>CH3CO+H2 2.370E+13 0.00 3.642E+03
!R199
CH3CHO+O<=>CH3CO+OH 5.940E+12 0.00 1.868E+03
!R200
CH3CHO+OH<=>CH3CO+H2O 3.370E+12 0.00 -6.190E+02
!R201
CH3CHO+O2<=>CH3CO+HO2 3.010E+13 0.00 3.915E+04
!R202
CH3CHO+CH3<=>CH3CO+CH4 7.080E-04 4.58 1.966E+03
!R203
CH3CHO+HO2<=>CH3CO+H2O2 3.010E+12 0.00 1.192E+04
!R204
CH3O2+CH3CHO<=>CH3O2H+CH3CO 3.010E+12 0.00 1.192E+04
!R207
CH3CHO+OH<=>CH2CHO+H2O 1.720E+05 2.40 8.150E+02
!R208
CH3CO(+M)<=>CH3+CO(+M) 3.000E+12 0.00 1.672E+04
LOW / 1.2000E+15 0.0000E+00 1.2518E+04 / !LINDEMANN FALL-OFF REACTION
!R221
CH2CHO+O2<=>CH2O+CO+OH 8.950E+13 -0.60 1.012E+04
!R237
C2H3+H(+M)<=>C2H4(+M) 6.080E+12 0.27 2.800E+02
LOW / 1.4000E+30 -3.8600E+00 3.3200E+03 / 
TROE / 7.8200E-01 2.0750E+02 2.6630E+03 6.0950E+03 / !TROE FALL-OFF REACTION
H2/2/ H2O/6/ CO/1.5/ CO2/2/ CH4/2/ 
!R239
C2H4+H<=>C2H3+H2 5.070E+07 1.93 1.295E+04
!R240
C2H4+O<=>CH3+HCO 8.564E+06 1.88 1.830E+02
!R241
C2H4+O<=>CH2CHO+H 4.986E+06 1.88 1.830E+02
!R242
C2H4+OH<=>C2H3+H2O 1.800E+06 2.00 2.500E+03
!R243
C2H4+CH3<=>C2H3+CH4 6.620E+00 3.70 9.500E+03
!R244
C2H4+O2<=>C2H3+HO2 4.000E+13 0.00 5.820E+04
!R246
C2H4+CH3O2<=>C2H3+CH3O2H 2.230E+12 0.00 1.719E+04
!R253
CH2(S)+CH3<=>C2H4+H 2.000E+13 0.00 0.000E+00
!R256
C2H3+O2<=>CH2O+HCO 8.500E+28 -5.31 6.500E+03
!R257
C2H3+O2<=>CH2CHO+O 5.500E+14 -0.61 5.260E+03
!R271
C2H5OH(+M)<=>CH2OH+CH3(+M) 2.000E+23 -1.68 9.640E+04
LOW / 3.1100E+85 -1.8840E+01 1.1310E+05 / 
TROE / 5.0000E-01 5.5000E+02 8.2500E+02 6.1000E+03 / !TROE FALL-OFF REACTION
H2/2/ H2O/5/ CO/2/ CO2/3/ 
!R272
C2H5OH(+M)<=>C2H5+OH(+M) 2.400E+23 -1.62 9.954E+04
LOW / 5.1100E+85 -1.8800E+01 1.1877E+05 / 
TROE / 5.0000E-01 6.5000E+02 8.0000E+02 1.0000E+15 / !TROE FALL-OFF REACTION
H2/2/ H2O/5/ CO/2/ CO2/3/ 
!R273
C2H5OH(+M)<=>C2H4+H2O(+M) 1.320E+05 2.52 6.066E+04
LOW / 3.0900E+55 -1.0920E+01 6.2644E+04 / 
TROE / 8.9700E-01 1.0000E+10 1.0000E+00 5.0000E+09 / !TROE FALL-OFF REACTION
H2O/5/ 
!R274
C2H5OH(+M)<=>CH3CHO+H2(+M) 7.240E+11 0.10 9.101E+04
LOW / 4.4600E+87 -1.9420E+01 1.1558E+05 / 
TROE / 9.0000E-01 9.0000E+02 1.1000E+03 3.5000E+03 / !TROE FALL-OFF REACTION
H2O/5/ 
!R275
C2H5OH+O2<=>PC2H4OH+HO2 2.000E+13 0.00 5.280E+04
!R276
C2H5OH+O2<=>SC2H4OH+HO2 1.500E+13 0.00 5.015E+04
!R277
C2H5OH+OH<=>PC2H4OH+H2O 1.810E+11 0.40 7.170E+02
!R278
C2H5OH+OH<=>SC2H4OH+H2O 5.560E+10 0.50 -3.800E+02
!R279
C2H5OH+OH<=>C2H5O+H2O 1.500E+10 0.80 2.534E+03
!R280
C2H5OH+H<=>PC2H4OH+H2 1.880E+03 3.20 7.150E+03
!R281
C2H5OH+H<=>SC2H4OH+H2 1.790E+05 2.53 3.420E+03
!R282
C2H5OH+H<=>C2H5O+H2 5.360E+04 2.53 4.405E+03
!R283
C2H5OH+HO2<=>PC2H4OH+H2O2 2.379E+04 2.55 1.649E+04
!R284
C2H5OH+HO2<=>SC2H4OH+H2O2 6.000E+12 0.00 1.600E+04
!R285
C2H5OH+HO2<=>C2H5O+H2O2 2.500E+12 0.00 2.400E+04
!R286
C2H5OH+CH3O2<=>PC2H4OH+CH3O2H 1.230E+04 2.55 1.575E+04
!R287
C2H5OH+CH3O2<=>SC2H4OH+CH3O2H 8.200E+03 2.55 1.075E+04
!R288
C2H5OH+CH3O2<=>C2H5O+CH3O2H 2.500E+12 0.00 2.400E+04
!R289
C2H5OH+O<=>PC2H4OH+OH 9.690E+02 3.23 4.658E+03
!R290
C2H5OH+O<=>SC2H4OH+OH 1.450E+05 2.47 8.760E+02
!R291
C2H5OH+O<=>C2H5O+OH 1.460E-03 4.73 1.727E+03
!R292
C2H5OH+CH3<=>PC2H4OH+CH4 3.300E+02 3.30 1.229E+04
!R293
C2H5OH+CH3<=>SC2H4OH+CH4 1.993E+01 3.37 7.634E+03
!R294
C2H5OH+CH3<=>C2H5O+CH4 2.035E+00 3.57 7.721E+03
!R297
PC2H4OH<=>C2H4+OH 1.047E+25 -3.99 3.039E+04
!R298
SC2H4OH+M<=>CH3CHO+H+M 1.000E+14 0.00 2.500E+04
!R299
O2C2H4OH<=>PC2H4OH+O2 3.900E+16 -1.00 3.000E+04
!R300
O2C2H4OH<=>OH+CH2O+CH2O 3.125E+09 0.00 1.890E+04
!R301
SC2H4OH+O2<=>CH3CHO+HO2 3.810E+06 2.00 1.641E+03
!R513
 N+OH=NO+H                            3.8E13   0.000       0 ! SKR/GLA04 FLO/HAN77,HOW/SMI80
!R514
 N+O2=NO+O                            6.4E09   1.000    6280 ! SKR/GLA04 BAU/DRY73
!R515
 N+NO=N2+O                            2.1E13   0.000       0 ! TIA/QI09  CEC05
!R551
 NO+O(+M)=NO2(+M)                     1.3E15  -0.750       0 ! RAS/GLA08 ALL/DRY97,NBS91
   LOW  /4.72E24 -2.87 1550/                                 ! RAS/GLA08 ALL/DRY97 (FC=0.95-1E-04*T)
   TROE /0.880 1E03 1E04 1E30/                               ! RAS/GLA08A
                                                     !
!R552
! NO+O(+AR)=NO2(+AR)                   1.3E15  -0.750       0 ! RAS/GLA08ALL/DRY97,NBS91
!   LOW  /7.56E19 -1.41 0/                                    ! RAS/GLA08 YAR/SUT91 (FC=0.95-1E-04*T)
!   TROE /0.750 1E03 1E05 1E30/                               ! RAS/GLA08A 
!R554
 NO+HO2=NO2+OH                        2.1E12   0.000    -497 ! RAS/GLA08 CEC05
!R555
 NO2+H=NO+OH                          1.3E14   0.000     362 ! RAS/GLA08 KO/FON91
!R556
 NO2+O=NO+O2                          1.1E14  -0.520       0 ! RAS/GLA08 BEM/CLY74
!R561
 NO2+NO2=NO+NO+O2                     4.5E12   0.000   27599 ! RAS/GLA08 PAR/LIN98
!R570
 N2O(+M)=N2+O(+M)                     1.3E12   0.000   62570 ! SKR/GLA04 JOH/GLA92,ROH/HAN96
    LOW/4.0E14 0 56600/
    N2/1.7/ O2/1.4/ CO2/3.0/ H2O/12/   !
!R571
 N2O+H=N2+OH                          6.4E07   1.835   13492 !           PW
!R572
 N2O+O=NO+NO                          9.2E13   0.000   27679 ! SKR/GLA04 MEA/AND00
!R573
 N2O+O=N2+O2                          3.7E12   0.000   15936 ! SKR/GLA04 MEA/AND00
!R574
 N2O+OH=N2+HO2                        1.3E-2   4.720   36560 ! SKR/GLA04 MEB/LIN96
!R576
 N2O+NO=NO2+N2                        5.3E05   2.230   46280 ! SKR/GLA04 MEB/LIN96!
END
