ELEMENTS 
 O H C N PT
END

SPECIES
 O2 O CH4 H2 H OH H2O CO2 CO N2
END

REACTIONS
N2=>N2	1. 0. 0.
END