ELEMENTS 
C H O N AR Pt 
END 

SPECIES 
C3H6	CO	CO2	H2
H2O     N2O NO 	NO2
O2 		AR 	N2
END 

REACTIONS
N2=>N2	1 0 0 
END 