
ELEMENTS
H  C  N HE
END
SPECIES
H2      H       C3H3   
CH      CH2     AC3H4 
CH3     CH4     C4H4     
C2H     C2H2    C2H3    
C2H4    C2H5    C2H6
C6H6    C10H8   C4H3
HE      N2      
END

REACTIONS

!Reaction1
H+CH3(+M)<=>CH4(+M)                      1.270E+16    -.630     383.00
     LOW  /  2.477E+33   -4.760   2440.00/
     TROE/   .7830   74.00  2941.00  6964.00 /
H2/2.00/ CH4/2.00/ C2H6/3.00/

!Reaction 2
H+CH4<=>CH3+H2                           6.600E+08    1.620   10840.00

!Reaction 3
H+C2H2(+M)<=>C2H3(+M)                    5.600E+12     .000    2400.00
     LOW  /  3.800E+40   -7.270   7220.00/
     TROE/   .7507   98.50  1302.00  4167.00 /
H2/2.00/ CH4/2.00/ C2H6/3.00/ 

!Reaction 4
H+C2H3<=>H2+C2H2                         3.000E+13     .000        .00

!Reaction 5
H+C2H4(+M)<=>C2H5(+M)                    1.080E+12     .454    1820.00
     LOW  /  1.200E+42   -7.620   6970.00/
     TROE/   .9753  210.00   984.00  4374.00 /
H2/2.00/  CH4/2.00/ C2H6/3.00/ 

!Reaction 6
H+C2H4<=>C2H3+H2                         1.325E+06    2.530   12240.00

!Reaction 7
H+C2H6<=>C2H5+H2                         1.150E+08    1.900    7530.00

!Reaction 8
2CH3(+M)<=>C2H6(+M)                      2.120E+16    -.970     620.00
     LOW  /  1.770E+50   -9.670   6220.00/
     TROE/   .5325  151.00  1038.00  4970.00 /
H2/2.00/ CH4/2.00/ C2H6/3.00/

!Reaction 9
2CH3<=>H+C2H5                            4.990E+12     .100   10600.00

!Reaction 10
CH3+C2H4<=>C2H3+CH4                      2.270E+05    2.000    9200.00

!Reaction 11
C2H+H2<=>H+C2H2                          4.070E+05    2.400     200.00

!Reaction 12
H+C2H(+M)<=>C2H2(+M)                     1.000E+17   -1.000        .00
     LOW  /  3.750E+33   -4.800   1900.00/
     TROE/   .6464  132.00  1315.00  5566.00 /
H2/2.00/ CH4/2.00/ C2H6/3.00/

!Reaction 13
C4H3+C2H3<=>C6H6						2.87e14		0 		820

!Reaction 14
C3H3+C3H3<=>C6H6		3e11		0		0

!Reaction 15
AC3H4<=>C3H3+H			1e17		0		70000

!Reaction 16
CH3+C2H2<=>AC3H4+H		6.74e19		-2.10	31590

!Reaction 17
C2H+C2H2<=>C4H3		1e13		0		0

!Reaction 18
C2H2+C2H2<=>C4H4                           2.45E+14    .000  46400.0

!Reaction 19
C2H3+C2H2<=>C4H4+H		2e12	0		5000

!Reaction 20
C2H+C2H4<=>C4H4+H			1.21e13		0		0

!Reaction 21
CH3+C2H6<=>C2H5+CH4                      6.140E+06    1.740   10450.00

!Reaction 22
AC3H4+C3H3<=>C6H6+H		2.2e11		0		2000

!Reaction 23
C2H4(+M)<=>H2+C2H2(+M)                   8.000E+12     .440   88770.00
     LOW  /  7.000E+50   -9.310  99860.00/
     TROE/   .7345  180.00  1035.00  5417.00 /
H2/2.00/ CH4/2.00/ C2H6/3.00/ 

!Reaction 24
C4H4+C2H2<=>C6H6			4.47e11		0		30090

!Reaction 25
AC3H4+C2H<=>C3H3+C2H2		1e13		0		0

!Reaction 26
H+C2H5(+M)<=>C2H6(+M)                    5.210E+17    -.990    1580.00
     LOW  /  1.990E+41   -7.080   6685.00/
     TROE/   .8422  125.00  2219.00  6882.00 /
	 
!Reaction 27
H+C2H3(+M)<=>C2H4(+M)                    6.080E+12     .270     280.00
     LOW  /  1.400E+30   -3.860   3320.00/
     TROE/   .7820  207.50  2663.00  6095.00 /
H2/2.00/ CH4/2.00/ C2H6/3.00/ 

!Reaction 28
H+C2H5<=>H2+C2H4                         2.000E+12     .000        .00

END



