ELEMENTS 
H O N AR Rh 
END 

SPECIES 
O2 H2 H2O 
AR N2
END 

REACTIONS
N2=>N2	1 0 0 
END 
