ELEMENTS 
 O H N C RH
END

SPECIES
 O2 H2 H2O CH4 CO CO2 N2
END

REACTIONS
N2=>N2	1. 0. 0.
END