ELEMENTS 
O N AR END

SPECIES 
O2 N2 NO N O AR 
END

REACTIONS

N2+O2=NO+NO 9.1E24 -2.5 128500.

N2+O=NO+N 7.0E13 0. 75000.

O2+N=NO+O 1.34E10 1.0 7080.

O2+M=O+O+M 3.62E18 -1.0 118000.
N2/2/ O2/9/ O/25/

N2+M=N+N+M 1.92E17 -0.5 224900.
N2/2.5/ N/0/

N2+N=N+N+N 4.1E22 -1.5 224900.

NO+M=N+O+M 4.0E20 -1.5 150000.
NO/20/ O/20/ N/20/

END
