ELEMENTS 
 O H C N Rh Pt
END

SPECIES
 O2 C3H6 H2 H2O CO2 CO NO N2
END

REACTIONS
N2=>N2	1. 0. 0.
END